data_crystal

_cell_length_a 17.18337
_cell_length_b 17.20456
_cell_length_c 85.12907
_cell_angle_alpha 90.13744
_cell_angle_beta  89.85859
_cell_angle_gamma 119.76625

_symmetry_space_group_name_	'P 1'
_symmetry_space_group_name_H-M	'P 1'

loop_
_symmetry_equiv_pos_as_xyz
  x,y,z

loop_
_atom_site_label
_atom_site_type_symbol
_atom_site_fract_x
_atom_site_fract_y
_atom_site_fract_z
_atom_site_charge
C 	C 	0.64136 0.19014 0.54829 0.30800
C 	C 	0.57887 0.14901 0.58990 0.32700
C 	C 	0.63502 0.42467 0.54454 0.31700
C 	C 	0.61273 0.45719 0.58661 0.32800
Ni	Ni	0.76577 0.27907 0.57545 1.11900
Ni	Ni	0.58028 0.28653 0.56917 1.12500
Ni	Ni	0.76731 0.46775 0.57015 1.12600
O 	O 	0.59348 0.33877 0.54768 -0.39100
O 	O 	0.72153 0.21539 0.55392 -0.36300
O 	O 	0.57676 0.18119 0.55771 -0.37100
O 	O 	0.69970 0.48560 0.58753 -0.35800
O 	O 	0.82734 0.44953 0.55120 -0.39000
O 	O 	0.55417 0.37776 0.58022 -0.34400
O 	O 	0.66346 0.16828 0.58756 -0.33300
O 	O 	0.55460 0.21094 0.58869 -0.35200
O 	O 	0.68602 0.48429 0.55507 -0.37600
O 	O 	0.70269 0.34326 0.57481 -0.72000
H 	H 	0.69397 0.34586 0.58620 0.16800
C 	C 	0.46143 0.86955 0.35435 0.32600
C 	C 	0.17653 0.60933 0.39616 0.30500
C 	C 	0.43318 0.80556 0.39577 0.29800
C 	C 	0.15653 0.60958 0.34988 0.32700
C 	C 	0.39726 0.56763 0.39204 0.30200
C 	C 	0.37702 0.54063 0.34845 0.32900
Ni	Ni	0.28506 0.74961 0.37215 1.12100
Ni	Ni	0.25288 0.54694 0.37121 1.12700
Ni	Ni	0.45574 0.71103 0.36865 1.12500
O 	O 	0.38188 0.85657 0.35890 -0.33800
O 	O 	0.47491 0.80119 0.35172 -0.34500
O 	O 	0.33511 0.51327 0.38225 -0.36700
O 	O 	0.17382 0.66352 0.38563 -0.35200
O 	O 	0.21351 0.56042 0.39293 -0.38500
O 	O 	0.44939 0.61815 0.35269 -0.34200
O 	O 	0.35657 0.80229 0.39276 -0.36000
O 	O 	0.48692 0.81203 0.38419 -0.36800
O 	O 	0.29444 0.52523 0.35064 -0.35800
O 	O 	0.20314 0.69681 0.35259 -0.33500
O 	O 	0.14802 0.55177 0.36098 -0.35600
O 	O 	0.46443 0.64298 0.38697 -0.38000
O 	O 	0.33078 0.67170 0.36811 -0.71900
H 	H 	0.32757 0.67304 0.35656 0.16100
C 	C 	0.46096 0.65041 0.61282 0.31800
C 	C 	0.11750 0.58271 0.63805 0.33200
C 	C 	0.35815 0.80217 0.61475 0.33900
C 	C 	0.20376 0.42607 0.63914 0.33100
C 	C 	0.33181 0.77364 0.66612 0.34900
C 	C 	0.46347 0.65610 0.66658 0.32300
Ni	Ni	0.27089 0.60170 0.61940 1.12100
Ni	Ni	0.26691 0.59005 0.65728 1.13500
Ni	Ni	0.43539 0.74985 0.64038 1.12800
O 	O 	0.37576 0.58870 0.61067 -0.34300
O 	O 	0.48397 0.73010 0.61932 -0.34100
O 	O 	0.26237 0.70137 0.66101 -0.36800
O 	O 	0.17634 0.63239 0.62750 -0.35500
O 	O 	0.13892 0.54063 0.64863 -0.33400
O 	O 	0.49372 0.69444 0.65274 -0.35900
O 	O 	0.33193 0.72518 0.60758 -0.33400
O 	O 	0.37300 0.80867 0.62985 -0.35900
O 	O 	0.37811 0.62536 0.67117 -0.33700
O 	O 	0.19326 0.46503 0.62629 -0.34000
O 	O 	0.25743 0.47359 0.65070 -0.35400
O 	O 	0.41294 0.79640 0.66099 -0.34800
O 	O 	0.33388 0.63382 0.63850 -0.72000
H 	H 	0.36403 0.59789 0.63811 0.17700
C 	C 	0.04263 0.09627 0.66575 0.36200
C 	C 	0.09168 0.19565 0.70764 0.29000
C 	C 	0.11840 0.89616 0.68634 0.33200
C 	C 	0.13449 0.98697 0.72457 0.30000
Ni	Ni	0.13270 0.06401 0.69332 1.12900
O 	O 	0.12289 0.96628 0.67963 -0.34400
O 	O 	0.96515 0.03381 0.67118 -0.36300
O 	O 	0.11595 0.12610 0.67431 -0.34900
O 	O 	0.05643 0.91127 0.72434 -0.36000
O 	O 	0.18010 0.02266 0.71144 -0.37100
O 	O 	0.02569 0.16882 0.69735 -0.33700
O 	O 	0.15377 0.17211 0.70607 -0.36300
O 	O 	0.04383 0.83856 0.69357 -0.32800
C 	C 	0.24641 0.54608 0.86112 0.27800
C 	C 	0.44753 0.69708 0.91917 0.33900
C 	C 	0.19464 0.44718 0.90136 0.34300
C 	C 	0.50008 0.78309 0.87593 0.28900
C 	C 	0.20991 0.73087 0.91612 0.33500
C 	C 	0.24247 0.77789 0.87460 0.28600
Ni	Ni	0.37028 0.59904 0.88902 1.12100
Ni	Ni	0.36986 0.78212 0.89874 1.12700
Ni	Ni	0.18283 0.60287 0.89006 1.12900
O 	O 	0.32999 0.57212 0.86567 -0.36200
O 	O 	0.18072 0.52457 0.87158 -0.34900
O 	O 	0.29205 0.74679 0.91758 -0.36600
O 	O 	0.39593 0.61725 0.91304 -0.33500
O 	O 	0.46313 0.76964 0.91142 -0.35700
O 	O 	0.17942 0.69198 0.87510 -0.35900
O 	O 	0.26488 0.46918 0.89242 -0.34900
O 	O 	0.17178 0.50707 0.90533 -0.34300
O 	O 	0.29068 0.82003 0.88720 -0.37200
O 	O 	0.49292 0.71339 0.88379 -0.35200
O 	O 	0.45928 0.82675 0.88089 -0.36800
O 	O 	0.15115 0.65963 0.90824 -0.33100
O 	O 	0.31084 0.66583 0.88960 -0.71000
H 	H 	0.32000 0.68606 0.87862 0.14100
C 	C 	0.68633 0.49095 0.01237 0.32700
C 	C 	0.49559 0.18910 0.05351 0.29200
C 	C 	0.68988 0.44358 0.05774 0.30400
C 	C 	0.42080 0.18453 0.01438 0.32200
C 	C 	0.72848 0.22318 0.04645 0.30000
Ni	Ni	0.54704 0.35070 0.03321 1.12000
Ni	Ni	0.58293 0.18140 0.02402 1.12600
O 	O 	0.59935 0.44514 0.01537 -0.33700
O 	O 	0.65532 0.15950 0.03999 -0.37700
O 	O 	0.49427 0.26474 0.05222 -0.35400
O 	O 	0.48722 0.14087 0.04094 -0.36500
O 	O 	0.63478 0.45254 0.04824 -0.35700
O 	O 	0.67233 0.20036 0.00626 -0.33400
O 	O 	0.43918 0.26531 0.01895 -0.33500
O 	O 	0.48586 0.17080 0.00921 -0.33600
O 	O 	0.62333 0.30636 0.02658 -0.71500
H 	H 	0.62128 0.31724 0.01526 0.15900
C 	C 	0.20080 0.15601 0.24512 0.31800
C 	C 	0.15813 0.09368 0.20431 0.30400
Ni	Ni	0.09622 0.97431 0.23212 1.11700
Ni	Ni	0.03973 0.12817 0.22521 1.12800
O 	O 	0.15860 0.07104 0.24931 -0.33400
O 	O 	0.15594 0.19263 0.23850 -0.33200
O 	O 	0.18574 0.07045 0.21678 -0.35500
O 	O 	0.11278 0.13630 0.20579 -0.37500
C 	C 	0.78038 0.56999 0.29649 0.32300
C 	C 	0.61215 0.20222 0.32530 0.34100
C 	C 	0.50373 0.34919 0.31766 0.31900
C 	C 	0.67933 0.21563 0.27496 0.34600
C 	C 	0.54697 0.32711 0.26615 0.32500
Ni	Ni	0.69539 0.39882 0.31821 1.13600
Ni	Ni	0.55359 0.24299 0.29544 1.12900
Ni	Ni	0.73530 0.40056 0.28113 1.13100
O 	O 	0.77721 0.53459 0.31068 -0.32000
O 	O 	0.74091 0.51913 0.28410 -0.35700
O 	O 	0.59449 0.19247 0.27744 -0.34300
O 	O 	0.62615 0.27951 0.33073 -0.32700
O 	O 	0.60250 0.18582 0.31019 -0.35300
O 	O 	0.63560 0.35850 0.26409 -0.33200
O 	O 	0.50642 0.29397 0.27968 -0.36500
O 	O 	0.58429 0.41062 0.32247 -0.33900
O 	O 	0.48676 0.26752 0.31323 -0.33700
O 	O 	0.74311 0.28915 0.28100 -0.36300
O 	O 	0.65120 0.36143 0.29791 -0.72100
H 	H 	0.62208 0.39736 0.29590 0.18200
C 	C 	0.11114 0.97233 0.93703 0.31700
C 	C 	0.00514 0.10054 0.92543 0.35200
C 	C 	0.09864 0.05474 0.98783 0.32100
Ni	Ni	0.07502 0.10570 0.95623 1.13300
O 	O 	0.03079 0.90436 0.93996 -0.33900
O 	O 	0.13381 0.05783 0.94027 -0.32300
O 	O 	0.13935 0.09078 0.97437 -0.35000
O 	O 	0.97872 0.01499 0.92331 -0.32500
O 	O 	0.00851 0.13026 0.93952 -0.36600
O 	O 	0.01750 0.04359 0.99118 -0.33200
O 	O 	0.04087 0.17933 0.97039 -0.33900
O 	O 	0.97783 0.98849 0.95933 -0.73800
H 	H 	0.01177 0.95996 0.96308 0.18900
C 	C 	0.43846 0.35315 0.25157 0.10600
C 	C 	0.48798 0.30872 0.25241 -0.09000
C 	C 	0.45026 0.22333 0.24572 0.10200
C 	C 	0.35630 0.17071 0.24416 0.10500
C 	C 	0.30128 0.21029 0.24684 -0.08800
C 	C 	0.34404 0.30331 0.25038 0.10200
Br	Br	0.27505 0.35951 0.25618 -0.13000
Br	Br	0.50064 0.48153 0.25093 -0.14200
Br	Br	0.30547 0.04427 0.23991 -0.20500
Br	Br	0.52704 0.17676 0.23965 -0.14600
Br	Br	0.72018 0.71667 0.30465 -0.12100
C 	C 	0.70414 0.16776 0.26328 -0.09100
C 	C 	0.68472 0.07952 0.26626 0.11100
C 	C 	0.73707 0.04658 0.25919 0.12000
Br	Br	0.70339 0.92257 0.26192 -0.14700
Br	Br	0.58610 0.00363 0.27986 -0.11100
C 	C 	0.72318 0.64458 0.00504 0.11200
Br	Br	0.68942 0.66014 0.02601 -0.17100
C 	C 	0.29519 0.04520 0.00141 0.11700
C 	C 	0.32443 0.11374 0.01287 -0.09600
C 	C 	0.25867 0.12507 0.02092 0.10800
C 	C 	0.17410 0.09461 0.01399 0.10700
C 	C 	0.15246 0.04331 0.00015 -0.09100
C 	C 	0.20649 0.00656 0.99573 0.11200
Br	Br	0.15861 0.90511 0.98177 -0.15600
Br	Br	0.36919 0.99499 0.99533 -0.14900
Br	Br	0.08962 0.12380 0.02334 -0.14200
Br	Br	0.28093 0.17245 0.04197 -0.18700
Br	Br	0.08541 0.31524 0.99761 -0.12300
Br	Br	0.68246 0.20745 0.96945 -0.11000
C 	C 	0.47584 0.14578 0.06894 -0.06900
C 	C 	0.40174 0.05968 0.07090 0.01400
C 	C 	0.36879 0.02810 0.08596 -0.03300
C 	C 	0.40918 0.08286 0.09911 0.02100
C 	C 	0.48855 0.16507 0.09719 -0.05500
C 	C 	0.52194 0.19604 0.08217 0.01300
C 	C 	0.36192 0.06092 0.11436 0.01000
C 	C 	0.27421 0.04693 0.11527 -0.03500
C 	C 	0.23533 0.04311 0.12988 -0.03400
C 	C 	0.28429 0.05485 0.14370 0.00800
C 	C 	0.37012 0.06408 0.14282 -0.03400
C 	C 	0.40826 0.06594 0.12822 -0.03500
C 	C 	0.24774 0.06193 0.15900 0.02500
C 	C 	0.24508 0.00859 0.17164 -0.04300
C 	C 	0.21731 0.02017 0.18644 0.03500
C 	C 	0.18968 0.08381 0.18871 -0.08300
C 	C 	0.18971 0.13537 0.17594 0.02000
C 	C 	0.21933 0.12500 0.16119 -0.06000
H 	H 	0.36642 0.01959 0.06075 0.06200
H 	H 	0.30903 0.96333 0.08734 0.03800
H 	H 	0.52124 0.20737 0.10727 0.04900
H 	H 	0.58052 0.26157 0.08076 0.03400
H 	H 	0.23764 0.04275 0.10466 0.05300
H 	H 	0.16819 0.03372 0.13044 0.04500
H 	H 	0.40828 0.07248 0.15342 0.05100
H 	H 	0.47532 0.07512 0.12766 0.04400
H 	H 	0.26535 0.95867 0.17002 0.04100
H 	H 	0.21625 0.97886 0.19611 0.03900
H 	H 	0.16801 0.18424 0.17745 0.04300
H 	H 	0.22140 0.16680 0.15151 0.05100
C 	C 	0.75878 0.48736 0.10037 -0.06300
C 	C 	0.73540 0.44644 0.08563 0.01600
C 	C 	0.70638 0.48245 0.07370 -0.08000
H 	H 	0.78207 0.45952 0.10940 0.05000
H 	H 	0.74074 0.38724 0.08343 0.03400
C 	C 	0.58842 0.80612 0.95346 0.11100
C 	C 	0.67190 0.82661 0.94676 -0.10100
C 	C 	0.67295 0.77630 0.93343 0.11500
C 	C 	0.59166 0.71132 0.92683 0.11200
C 	C 	0.51169 0.70697 0.93145 -0.09400
C 	C 	0.50825 0.74297 0.94605 0.10600
Br	Br	0.39539 0.69583 0.95670 -0.12000
Br	Br	0.58332 0.87069 0.97160 -0.13000
Br	Br	0.58998 0.63231 0.91057 -0.16700
C 	C 	0.14379 0.21706 0.91296 0.09400
C 	C 	0.04962 0.16708 0.91279 -0.09500
C 	C 	0.00311 0.20759 0.90630 0.11400
C 	C 	0.04927 0.30065 0.90297 0.11800
C 	C 	0.14136 0.35332 0.90682 -0.09900
C 	C 	0.18681 0.31052 0.91267 0.10600
Br	Br	0.30669 0.37945 0.92087 -0.15600
Br	Br	0.21349 0.15950 0.90995 -0.15000
Br	Br	0.98727 0.35423 0.89281 -0.19600
C 	C 	0.13438 0.82285 0.91116 0.10600
C 	C 	0.18840 0.80167 0.92088 -0.09800
C 	C 	0.23653 0.86056 0.93343 0.10300
C 	C 	0.23474 0.94088 0.93537 0.09500
C 	C 	0.17037 0.95264 0.92747 -0.08000
C 	C 	0.13416 0.90362 0.91356 0.10100
Br	Br	0.06876 0.93739 0.89943 -0.15400
Br	Br	0.04820 0.73628 0.89671 -0.15700
Br	Br	0.31592 0.03208 0.94956 -0.11400
Br	Br	0.28875 0.82354 0.94964 -0.11400
C 	C 	0.24894 0.83005 0.86058 -0.07300
C 	C 	0.26453 0.80333 0.84590 0.01400
C 	C 	0.26791 0.85079 0.83239 -0.06000
C 	C 	0.25498 0.92497 0.83345 0.03000
C 	C 	0.24044 0.95250 0.84817 -0.05700
C 	C 	0.23791 0.90542 0.86172 0.02500
C 	C 	0.25059 0.96958 0.81902 0.00900
C 	C 	0.16699 0.94971 0.81292 -0.03700
C 	C 	0.16072 0.97583 0.79766 -0.02700
C 	C 	0.23818 0.02250 0.78841 -0.00100
C 	C 	0.32250 0.04855 0.79499 -0.03300
C 	C 	0.32862 0.02176 0.81022 -0.03900
C 	C 	0.22979 0.03265 0.77137 0.02700
C 	C 	0.26106 0.99235 0.76060 -0.05500
C 	C 	0.23675 0.98489 0.74479 0.03600
C 	C 	0.18068 0.01715 0.73964 -0.08900
C 	C 	0.15575 0.06413 0.75009 0.01800
C 	C 	0.18025 0.07196 0.76591 -0.06200
H 	H 	0.27387 0.74565 0.84495 0.02900
H 	H 	0.27891 0.82897 0.82107 0.05100
H 	H 	0.23005 0.00952 0.84907 0.06500
H 	H 	0.22562 0.92638 0.87303 0.06200
H 	H 	0.10646 0.91001 0.81969 0.05300
H 	H 	0.09530 0.95578 0.79274 0.04600
H 	H 	0.38285 0.08599 0.78806 0.04500
H 	H 	0.39358 0.03823 0.81492 0.04700
H 	H 	0.29993 0.96239 0.76464 0.05800
H 	H 	0.25713 0.94940 0.73674 0.05700
H 	H 	0.11332 0.09032 0.74614 0.02800
H 	H 	0.15709 0.10465 0.77405 0.05000
C 	C 	0.22189 0.51911 0.84463 -0.06900
C 	C 	0.15659 0.53270 0.83725 0.01300
C 	C 	0.13096 0.50398 0.82176 -0.05700
C 	C 	0.17001 0.46100 0.81359 0.02900
C 	C 	0.23584 0.44823 0.82091 -0.05900
C 	C 	0.26180 0.47726 0.83633 0.01700
C 	C 	0.14212 0.42911 0.79739 0.00400
C 	C 	0.17128 0.49037 0.78491 -0.03100
C 	C 	0.15563 0.45960 0.76939 -0.03500
C 	C 	0.11059 0.36731 0.76623 0.01100
C 	C 	0.07760 0.30611 0.77873 -0.03700
C 	C 	0.09336 0.33691 0.79424 -0.03300
C 	C 	0.10609 0.33481 0.75002 0.02500
C 	C 	0.18505 0.35224 0.74219 -0.05400
C 	C 	0.18061 0.31176 0.72772 0.02200
C 	C 	0.09709 0.25327 0.72093 -0.07200
C 	C 	0.01832 0.24060 0.72829 0.03300
C 	C 	0.02277 0.28051 0.74285 -0.03700
H 	H 	0.12592 0.56561 0.84348 0.04600
H 	H 	0.08044 0.51457 0.81616 0.05700
H 	H 	0.26663 0.41549 0.81465 0.05300
H 	H 	0.31181 0.46583 0.84192 0.04700
H 	H 	0.20861 0.56168 0.78724 0.04700
H 	H 	0.18075 0.50735 0.75982 0.05800
H 	H 	0.04255 0.23473 0.77641 0.04500
H 	H 	0.07004 0.28915 0.80381 0.04800
H 	H 	0.24973 0.39458 0.74759 0.05800
H 	H 	0.24201 0.32351 0.72204 0.05600
C 	C 	0.84886 0.96400 0.77665 0.02800
C 	C 	0.81785 0.94558 0.79308 0.00200
C 	C 	0.77113 0.85686 0.79848 -0.03400
C 	C 	0.73110 0.83771 0.81330 -0.03600
C 	C 	0.73695 0.90696 0.82283 0.00500
C 	C 	0.78714 0.99611 0.81777 -0.03600
C 	C 	0.82774 0.01540 0.80295 -0.03700
C 	C 	0.68315 0.88521 0.83730 0.03000
C 	C 	0.69937 0.84173 0.84972 -0.05500
C 	C 	0.64066 0.80984 0.86252 0.02000
C 	C 	0.56515 0.82117 0.86297 -0.07100
C 	C 	0.55066 0.86724 0.85076 0.01600
C 	C 	0.60947 0.89921 0.83801 -0.05800
H 	H 	0.93330 0.90421 0.77855 0.04400
H 	H 	0.76304 0.80247 0.79095 0.04700
H 	H 	0.69256 0.76872 0.81713 0.04600
H 	H 	0.79263 0.05007 0.82513 0.04900
H 	H 	0.75636 0.83098 0.84929 0.06000
H 	H 	0.65354 0.77585 0.87200 0.06400
H 	H 	0.49250 0.87616 0.85095 0.04000
H 	H 	0.59617 0.93227 0.82842 0.05100
C 	C 	0.55176 0.71736 0.69134 0.10200
C 	C 	0.53068 0.66131 0.67806 -0.09000
C 	C 	0.59285 0.63549 0.67315 0.10600
C 	C 	0.68371 0.68700 0.67768 0.10800
C 	C 	0.70791 0.75417 0.68927 -0.10100
C 	C 	0.63879 0.75771 0.69765 0.10800
Br	Br	0.66280 0.81573 0.71782 -0.18000
Br	Br	0.46551 0.74556 0.70005 -0.15200
Br	Br	0.77279 0.66609 0.66785 -0.12500
Br	Br	0.55199 0.52802 0.66095 -0.13300
C 	C 	0.10441 0.17487 0.64053 0.11200
C 	C 	0.04328 0.15400 0.65303 -0.10600
C 	C 	0.01628 0.21602 0.65682 0.12600
C 	C 	0.07676 0.30643 0.65451 0.11100
C 	C 	0.14004 0.33082 0.64218 -0.09400
C 	C 	0.15022 0.26328 0.63456 0.10600
Br	Br	0.23163 0.29304 0.61711 -0.15200
Br	Br	0.13044 0.08523 0.63271 -0.12500
Br	Br	0.09886 0.38580 0.67203 -0.17000
Br	Br	0.90538 0.17947 0.66771 -0.20300
C 	C 	0.25354 0.78095 0.69003 0.10900
C 	C 	0.31738 0.82694 0.67810 -0.09500
C 	C 	0.33897 0.91507 0.67452 0.10900
C 	C 	0.27971 0.94566 0.67901 0.12100
C 	C 	0.20044 0.88709 0.68738 -0.10400
C 	C 	0.19730 0.81338 0.69515 0.11400
Br	Br	0.13141 0.76913 0.71450 -0.17800
Br	Br	0.23278 0.66630 0.69740 -0.16900
Br	Br	0.31649 0.07080 0.67666 -0.18900
Br	Br	0.44980 0.99348 0.66392 -0.12300
C 	C 	0.44050 0.44723 0.31361 0.10700
C 	C 	0.43039 0.36781 0.32014 -0.09300
C 	C 	0.37706 0.33308 0.33361 0.11000
C 	C 	0.35725 0.38899 0.34284 0.10700
C 	C 	0.38901 0.47862 0.33813 -0.09300
C 	C 	0.42542 0.50576 0.32298 0.11200
Br	Br	0.45694 0.62318 0.31527 -0.10500
Br	Br	0.49033 0.48234 0.29292 -0.14100
Br	Br	0.28823 0.34323 0.36184 -0.18000
Br	Br	0.33813 0.21196 0.34002 -0.13300
C 	C 	0.02685 0.49273 0.31327 0.12100
C 	C 	0.10034 0.54145 0.32342 0.10400
C 	C 	0.08852 0.57803 0.33746 -0.09400
C 	C 	0.00615 0.57255 0.34062 0.12100
Br	Br	0.99543 0.64099 0.35766 -0.16200
Br	Br	0.21750 0.56234 0.31773 -0.13700
Br	Br	0.04235 0.44187 0.29410 -0.12200
C 	C 	0.58470 0.98092 0.33645 0.09300
C 	C 	0.53150 0.96227 0.35017 -0.10300
C 	C 	0.53387 0.03454 0.35848 0.11500
C 	C 	0.56413 0.11730 0.35094 0.10500
C 	C 	0.60670 0.13215 0.33614 -0.09700
C 	C 	0.62919 0.06878 0.33047 0.11900
Br	Br	0.72729 0.10537 0.31590 -0.12400
Br	Br	0.59628 0.88865 0.32558 -0.11800
Br	Br	0.54637 0.20802 0.36102 -0.14000
Br	Br	0.49973 0.02126 0.38031 -0.18300
C 	C 	0.60749 0.55437 0.60811 0.10900
C 	C 	0.57970 0.51558 0.59302 -0.09300
C 	C 	0.53359 0.54527 0.58318 0.10700
C 	C 	0.51252 0.60967 0.58871 0.10700
C 	C 	0.52884 0.63756 0.60445 -0.09000
C 	C 	0.58791 0.62078 0.61317 0.10300
Br	Br	0.65215 0.69796 0.63042 -0.14300
Br	Br	0.66395 0.51061 0.62238 -0.11800
Br	Br	0.45928 0.65851 0.57492 -0.15000
Br	Br	0.49642 0.49629 0.56240 -0.18800
C 	C 	0.02274 0.55889 0.63561 -0.07700
C 	C 	0.00464 0.61349 0.62578 0.12200
Br	Br	0.07089 0.74142 0.62831 -0.11100
C 	C 	0.46027 0.04730 0.60902 0.09600
C 	C 	0.51214 0.05806 0.59544 -0.10000
C 	C 	0.49420 0.98167 0.58640 0.10700
C 	C 	0.42395 0.89684 0.59077 0.10900
C 	C 	0.38424 0.88526 0.60563 -0.09900
C 	C 	0.39251 0.96114 0.61347 0.11500
Br	Br	0.30473 0.94724 0.62896 -0.10900
Br	Br	0.48875 0.14800 0.62257 -0.11800
Br	Br	0.36655 0.80564 0.57502 -0.15500
Br	Br	0.56883 0.99081 0.56880 -0.17800
C 	C 	0.61103 0.45434 0.53008 -0.07700
C 	C 	0.67805 0.51847 0.52034 0.02200
C 	C 	0.65593 0.53557 0.50541 -0.06200
C 	C 	0.56665 0.48897 0.50022 0.03200
C 	C 	0.49923 0.42879 0.51032 -0.06000
C 	C 	0.52131 0.41110 0.52512 0.02900
C 	C 	0.54449 0.49713 0.48383 0.00200
C 	C 	0.51346 0.42331 0.47368 -0.03500
C 	C 	0.48386 0.42753 0.45861 -0.03600
C 	C 	0.48556 0.50583 0.45352 0.00400
C 	C 	0.51827 0.58038 0.46357 -0.03600
C 	C 	0.54757 0.57598 0.47868 -0.03500
C 	C 	0.45494 0.51043 0.43757 0.03000
C 	C 	0.49844 0.50010 0.42442 -0.05800
C 	C 	0.47422 0.51147 0.40931 0.02600
C 	C 	0.40651 0.53345 0.40722 -0.07300
C 	C 	0.35967 0.53890 0.42031 0.01300
C 	C 	0.38394 0.52768 0.43544 -0.05900
H 	H 	0.74751 0.55220 0.52405 0.03800
H 	H 	0.70839 0.58265 0.49770 0.05100
H 	H 	0.43000 0.39353 0.50649 0.05700
H 	H 	0.46891 0.36209 0.53261 0.05000
H 	H 	0.51099 0.36220 0.47757 0.04400
H 	H 	0.45899 0.36979 0.45093 0.04800
H 	H 	0.52077 0.64151 0.45967 0.04200
H 	H 	0.57122 0.63320 0.48646 0.04600
H 	H 	0.55283 0.48603 0.42594 0.05800
H 	H 	0.51068 0.50707 0.39926 0.05400
H 	H 	0.30727 0.55582 0.41881 0.03800
H 	H 	0.34903 0.53444 0.44550 0.04800
C 	C 	0.61916 0.15116 0.53240 -0.07600
C 	C 	0.68182 0.19039 0.52020 0.01900
C 	C 	0.66501 0.14930 0.50547 -0.06300
C 	C 	0.58506 0.06892 0.50275 0.03200
C 	C 	0.52109 0.03097 0.51479 -0.06300
C 	C 	0.53783 0.07215 0.52954 0.02600
C 	C 	0.56827 0.02479 0.48729 0.00200
C 	C 	0.55878 0.06703 0.47395 -0.03500
C 	C 	0.54444 0.02607 0.45924 -0.03400
C 	C 	0.53967 0.94254 0.45772 0.00100
C 	C 	0.54927 0.90026 0.47106 -0.03500
C 	C 	0.56350 0.94124 0.48579 -0.03500
C 	C 	0.52090 0.89796 0.44226 0.03100
C 	C 	0.57860 0.94055 0.42953 -0.06400
C 	C 	0.55306 0.90648 0.41432 0.02600
C 	C 	0.46952 0.82975 0.41175 -0.07600
C 	C 	0.41533 0.78319 0.42463 0.01600
C 	C 	0.44073 0.81728 0.43982 -0.06300
H 	H 	0.74365 0.25257 0.52215 0.03500
H 	H 	0.71439 0.17954 0.49619 0.04900
H 	H 	0.45868 0.96945 0.51273 0.06100
H 	H 	0.48844 0.04168 0.53880 0.05800
H 	H 	0.56218 0.13142 0.47500 0.04300
H 	H 	0.53616 0.05878 0.44903 0.05000
H 	H 	0.54562 0.83575 0.47001 0.04100
H 	H 	0.57123 0.90836 0.49603 0.05000
H 	H 	0.64151 0.00192 0.43134 0.06000
H 	H 	0.59616 0.94218 0.40449 0.05600
H 	H 	0.35196 0.72246 0.42280 0.03000
H 	H 	0.39632 0.78311 0.44960 0.04700
C 	C 	0.12642 0.54837 0.48626 -0.03500
C 	C 	0.14167 0.57158 0.47036 -0.03700
C 	C 	0.06911 0.54961 0.46025 0.01300
C 	C 	0.08452 0.56704 0.44325 0.02700
C 	C 	0.13807 0.65479 0.43768 -0.06000
C 	C 	0.16093 0.66988 0.42175 0.01500
C 	C 	0.13163 0.59727 0.41136 -0.07800
C 	C 	0.07296 0.51031 0.41675 0.02300
C 	C 	0.04970 0.49522 0.43262 -0.05900
H 	H 	0.18275 0.56584 0.49399 0.04700
H 	H 	0.20964 0.60545 0.46585 0.04100
H 	H 	0.16418 0.71088 0.44576 0.05200
H 	H 	0.20584 0.73737 0.41769 0.04200
H 	H 	0.04914 0.45387 0.40878 0.04700
O 	O 	0.01120 0.99755 0.70054 -0.67800
H 	H 	0.02448 0.02401 0.71110 0.12300
O 	O 	0.05318 0.88828 0.21288 -0.36700
C 	C 	0.76647 0.21762 0.25138 0.11200
Br	Br	0.77958 0.33046 0.24463 -0.18400
C 	C 	0.71784 0.56347 0.00078 -0.09700
C 	C 	0.76146 0.10576 0.11736 -0.03600
H 	H 	0.69457 0.09312 0.11465 0.04400
H 	H 	0.72614 0.05412 0.14083 0.04900
H 	H 	0.65488 0.58590 0.12616 0.04500
H 	H 	0.77147 0.02795 0.77087 0.05200
H 	H 	0.00751 0.42734 0.43677 0.05600
Br	Br	0.93092 0.42302 0.65892 -0.12900
H 	H 	0.79061 0.60088 0.17617 0.05900
H 	H 	0.02014 0.92133 0.18252 0.03500
H 	H 	0.68366 0.05926 0.05821 0.05700
C 	C 	0.75385 0.56496 0.10338 0.02900
C 	C 	0.69853 0.55850 0.07687 0.01900
C 	C 	0.72498 0.61479 0.12924 -0.03600
H 	H 	0.70677 0.65439 0.15235 0.04500
C 	C 	0.81357 0.00247 0.76639 -0.06300
C 	C 	0.75346 0.27302 0.00403 0.32300
C 	C 	0.90398 0.93208 0.77069 -0.06100
H 	H 	0.07784 0.62034 0.51602 0.06100
H 	H 	0.89990 0.30290 0.53280 0.03500
O 	O 	0.00939 0.00982 0.23150 -0.71100
H 	H 	0.00592 0.01865 0.24287 0.16800
C 	C 	0.76128 0.20330 0.06107 -0.07200
C 	C 	0.72853 0.11404 0.06576 0.02100
C 	C 	0.75280 0.09512 0.08028 -0.05700
H 	H 	0.72623 0.02609 0.08386 0.05900
H 	H 	0.92396 0.64821 0.11445 0.04400
Br	Br	0.87608 0.13647 0.90278 -0.15000
H 	H 	0.95351 0.19696 0.72307 0.03300
H 	H 	0.96144 0.26732 0.74874 0.03900
H 	H 	0.86473 0.08423 0.79897 0.03800
C 	C 	0.95372 0.47051 0.63803 0.08800
C 	C 	0.85467 0.43428 0.59754 0.31200
C 	C 	0.88439 0.42008 0.55211 0.31200
O 	O 	0.82691 0.34766 0.59602 -0.33800
O 	O 	0.86822 0.48397 0.58484 -0.35400
O 	O 	0.88373 0.37221 0.56418 -0.36200
C 	C 	0.88579 0.95762 0.72713 0.28700
C 	C 	0.80045 0.83265 0.69010 0.33600
Ni	Ni	0.92862 0.03386 0.69441 1.11400
Ni	Ni	0.96794 0.87555 0.70657 1.11500
O 	O 	0.88709 0.01991 0.71776 -0.36700
O 	O 	0.87713 0.88197 0.72130 -0.36200
O 	O 	0.80987 0.91337 0.69070 -0.33700
O 	O 	0.87102 0.82169 0.68989 -0.35200
Ni	Ni	0.74874 0.38165 0.02999 1.12600
O 	O 	0.74481 0.49264 0.02271 -0.35700
O 	O 	0.77013 0.35394 0.00815 -0.35400
O 	O 	0.73540 0.40550 0.05287 -0.38700
O 	O 	0.78321 0.29353 0.03817 -0.36700
C 	C 	0.96821 0.83317 0.21023 0.30700
C 	C 	0.94499 0.85378 0.25570 0.31200
C 	C 	0.91277 0.02930 0.20003 0.31500
C 	C 	0.87032 0.07181 0.24281 0.34600
Ni	Ni	0.88749 0.92028 0.22798 1.12300
O 	O 	0.88404 0.94727 0.20510 -0.39600
O 	O 	0.90910 0.82001 0.22108 -0.37200
O 	O 	0.95883 0.12806 0.24260 -0.34800
O 	O 	0.83254 0.99671 0.23436 -0.36700
O 	O 	0.01808 0.86896 0.24762 -0.33100
O 	O 	0.88642 0.87679 0.25019 -0.34400
O 	O 	0.93823 0.09559 0.21010 -0.36800
C 	C 	0.86291 0.42438 0.30719 0.34700
O 	O 	0.79119 0.36411 0.31386 -0.35200
O 	O 	0.85498 0.45642 0.29356 -0.33600
C 	C 	0.75678 0.90140 0.95325 0.34000
C 	C 	0.85656 0.79196 0.97139 0.32500
C 	C 	0.95738 0.16194 0.97226 0.33300
Ni	Ni	0.92036 0.91902 0.94159 1.13100
Ni	Ni	0.90616 0.97553 0.97725 1.12800
O 	O 	0.89094 0.07973 0.97236 -0.35900
O 	O 	0.82020 0.95004 0.94354 -0.34800
O 	O 	0.77825 0.89824 0.96801 -0.33100
O 	O 	0.84872 0.80064 0.95583 -0.31500
O 	O 	0.90812 0.86149 0.98013 -0.36400
C 	C 	0.86312 0.80022 0.28155 0.10900
C 	C 	0.92018 0.79597 0.26995 -0.08800
C 	C 	0.95084 0.73391 0.27214 0.10400
C 	C 	0.92627 0.68253 0.28579 0.10000
C 	C 	0.84717 0.66462 0.29353 -0.08800
C 	C 	0.81889 0.72834 0.29222 0.10600
Br	Br	0.86620 0.91155 0.28568 -0.13800
Br	Br	0.01344 0.66385 0.29628 -0.14500
Br	Br	0.00943 0.70419 0.25577 -0.15000
C 	C 	0.81051 0.10327 0.24943 -0.09400
C 	C 	0.82000 0.18582 0.24454 0.11300
Br	Br	0.89986 0.25150 0.22746 -0.17900
C 	C 	0.78192 0.62524 0.97507 0.10600
C 	C 	0.79187 0.70860 0.97966 -0.09100
C 	C 	0.75461 0.71497 0.99423 0.10700
C 	C 	0.74128 0.55166 0.98544 0.10400
Br	Br	0.71375 0.43445 0.97839 -0.14400
Br	Br	0.82770 0.61255 0.95510 -0.13000
Br	Br	0.74578 0.81937 0.99957 -0.19900
C 	C 	0.96676 0.27983 0.99007 0.10000
C 	C 	0.93702 0.23348 0.97580 -0.09500
C 	C 	0.86036 0.22763 0.96874 0.10900
C 	C 	0.79756 0.23670 0.97806 0.11000
C 	C 	0.81954 0.26654 0.99372 -0.09000
C 	C 	0.90839 0.29770 0.99903 0.10700
Br	Br	0.95217 0.36878 0.01785 -0.18800
Br	Br	0.83683 0.19568 0.94689 -0.12500
C 	C 	0.80999 0.16498 0.09029 0.03000
C 	C 	0.84482 0.25415 0.08549 -0.05900
C 	C 	0.82078 0.27328 0.07091 0.01700
C 	C 	0.82989 0.14460 0.10608 0.00400
C 	C 	0.77921 0.08323 0.13215 -0.03200
C 	C 	0.86557 0.09931 0.13580 0.00100
C 	C 	0.93408 0.13820 0.12452 -0.03700
C 	C 	0.91630 0.16084 0.10971 -0.03400
C 	C 	0.88513 0.07962 0.15169 0.04600
C 	C 	0.83957 0.99170 0.15749 -0.08100
C 	C 	0.85012 0.97465 0.17317 0.00200
C 	C 	0.90631 0.04554 0.18319 -0.06400
C 	C 	0.95540 0.13275 0.17710 0.01500
C 	C 	0.94461 0.14967 0.16146 -0.06300
H 	H 	0.88903 0.30855 0.09317 0.05100
H 	H 	0.84664 0.34237 0.06746 0.04600
H 	H 	0.00099 0.15097 0.12724 0.04700
H 	H 	0.96940 0.19037 0.10104 0.05000
H 	H 	0.79465 0.93693 0.14994 0.05000
H 	H 	0.81323 0.90674 0.17758 0.04600
H 	H 	0.00111 0.18765 0.18455 0.05000
H 	H 	0.98078 0.21761 0.15703 0.05400
C 	C 	0.93833 0.79538 0.19441 -0.08200
C 	C 	0.87213 0.70535 0.19254 0.02200
C 	C 	0.84087 0.67078 0.17752 -0.05900
C 	C 	0.87507 0.72620 0.16427 0.02800
C 	C 	0.94042 0.81652 0.16617 -0.06300
C 	C 	0.97184 0.85094 0.18116 0.01500
C 	C 	0.84462 0.68896 0.14837 0.00200
C 	C 	0.90571 0.68788 0.13752 -0.03600
C 	C 	0.87646 0.64969 0.12267 -0.03600
C 	C 	0.78580 0.61204 0.11853 0.00300
C 	C 	0.75429 0.65314 0.14411 -0.03600
C 	C 	0.72229 0.59963 0.09166 -0.06000
H 	H 	0.84518 0.66211 0.20269 0.05400
H 	H 	0.96639 0.86017 0.15605 0.04500
H 	H 	0.97558 0.71552 0.14068 0.04300
H 	H 	0.67647 0.58718 0.06779 0.05700
H 	H 	0.71801 0.65942 0.09389 0.05400
Br	Br	0.78267 0.80140 0.92288 -0.25300
C 	C 	0.87764 0.96510 0.74419 -0.07100
C 	C 	0.91738 0.93160 0.75452 0.00700
C 	C 	0.82832 0.00346 0.75023 0.01300
H 	H 	0.95738 0.90380 0.75002 0.03900
H 	H 	0.79850 0.03084 0.74238 0.05200
C 	C 	0.93064 0.51427 0.33192 0.11100
C 	C 	0.94141 0.47899 0.31742 -0.10300
Br	Br	0.81506 0.46950 0.34184 -0.26300
C 	C 	0.93767 0.57337 0.61424 0.09200
C 	C 	0.88975 0.47890 0.61302 -0.09000
C 	C 	0.88790 0.42853 0.62628 0.10600
Br	Br	0.90082 0.64532 0.60252 -0.16800
Br	Br	0.78674 0.31086 0.62991 -0.13300
C 	C 	0.94905 0.44093 0.53933 -0.10400
C 	C 	0.00403 0.53053 0.53484 0.04900
C 	C 	0.04054 0.55104 0.51973 -0.07100
C 	C 	0.02227 0.48208 0.50901 0.04900
C 	C 	0.97594 0.39270 0.51409 -0.08300
C 	C 	0.94028 0.37228 0.52929 0.03100
C 	C 	0.03857 0.50252 0.49214 0.00800
C 	C 	0.98135 0.50476 0.46620 -0.04600
C 	C 	0.96615 0.48112 0.48206 -0.04300
H 	H 	0.01289 0.58415 0.54265 0.04200
H 	H 	0.96314 0.33898 0.50599 0.05400
H 	H 	0.92495 0.48760 0.45850 0.04500
H 	H 	0.89815 0.44681 0.48655 0.04200
