data_crystal

_cell_length_a 43.84481
_cell_length_b 44.14895
_cell_length_c 43.82747
_cell_angle_alpha 89.90464
_cell_angle_beta  89.90446
_cell_angle_gamma 89.90446

_symmetry_space_group_name_	'P 1'
_symmetry_space_group_name_H-M	'P 1'

loop_
_symmetry_equiv_pos_as_xyz
  x,y,z

loop_
_atom_site_label
_atom_site_type_symbol
_atom_site_fract_x
_atom_site_fract_y
_atom_site_fract_z
_atom_site_charge
Co	Co	0.97856 0.02991 0.46070 1.19100
Co	Co	0.01945 0.98247 0.53777 1.19000
Co	Co	0.97661 0.03256 0.53466 1.18900
Co	Co	0.02071 0.97935 0.46374 1.18800
C 	C 	0.00764 0.06707 0.40878 0.30000
Co	Co	0.99711 0.00045 0.39617 1.16700
Co	Co	0.99330 0.00887 0.60232 1.16700
C 	C 	0.98934 0.93742 0.41982 0.30300
O 	O 	0.94982 0.02761 0.59910 -0.39800
O 	O 	0.99966 0.00991 0.55482 -0.77300
C 	C 	0.92979 0.01677 0.57962 0.31100
O 	O 	0.95985 0.05197 0.49640 -0.46800
O 	O 	0.03777 0.96029 0.50199 -0.46600
C 	C 	0.98663 0.94393 0.58412 0.30400
O 	O 	0.00954 0.01504 0.49912 -0.58200
C 	C 	0.00444 0.07405 0.58319 0.29900
C 	C 	0.93279 0.01144 0.41591 0.31100
C 	C 	0.06288 0.98473 0.40941 0.30900
O 	O 	0.93774 0.01214 0.55105 -0.40200
O 	O 	0.95367 0.01995 0.39604 -0.39900
O 	O 	0.94015 0.00835 0.44481 -0.40200
O 	O 	0.97417 0.96611 0.59996 -0.39200
O 	O 	0.99284 0.94763 0.55482 -0.39800
O 	O 	0.01337 0.05150 0.60111 -0.38500
O 	O 	0.98296 0.07041 0.56216 -0.38200
O 	O 	0.03900 0.97842 0.39237 -0.40400
O 	O 	0.06077 0.98502 0.43948 -0.38900
O 	O 	0.00172 0.00553 0.44354 -0.77300
C 	C 	0.05974 0.99351 0.59253 0.30800
O 	O 	0.03550 0.98820 0.60947 -0.40000
O 	O 	0.05879 0.99025 0.56262 -0.39000
O 	O 	0.01768 0.04261 0.39434 -0.39000
O 	O 	0.98644 0.06557 0.43053 -0.38200
O 	O 	0.97711 0.95831 0.40214 -0.38800
O 	O 	0.99474 0.94320 0.44890 -0.39900
Co	Co	0.97993 0.46469 0.02254 1.18900
Co	Co	0.02559 0.54104 0.97957 1.18900
Co	Co	0.98238 0.53782 0.02989 1.18800
Co	Co	0.02413 0.46774 0.97329 1.18800
C 	C 	0.93301 0.42320 0.00044 0.31100
Co	Co	0.99631 0.40098 0.99070 1.16700
Co	Co	0.00157 0.60517 0.00760 1.16600
C 	C 	0.06308 0.41166 0.97790 0.30900
O 	O 	0.01981 0.60102 0.05088 -0.39100
O 	O 	0.00604 0.55777 0.00750 -0.76800
C 	C 	0.00498 0.58789 0.07360 0.30200
O 	O 	0.96315 0.49974 0.04678 -0.46700
O 	O 	0.04303 0.50579 0.95611 -0.46600
C 	C 	0.06786 0.59333 0.99257 0.31000
O 	O 	0.01334 0.50177 0.01040 -0.58100
C 	C 	0.93702 0.58461 0.01497 0.31300
C 	C 	0.00730 0.41139 0.05829 0.29900
C 	C 	0.99208 0.42753 0.92826 0.30500
O 	O 	0.99144 0.56106 0.07040 -0.38000
O 	O 	0.01565 0.39587 0.03374 -0.38700
O 	O 	0.98572 0.43254 0.05704 -0.37900
O 	O 	0.04431 0.61129 0.98777 -0.40300
O 	O 	0.06550 0.56373 0.98905 -0.39100
O 	O 	0.95758 0.60340 0.02582 -0.40500
O 	O 	0.94435 0.55622 0.00968 -0.40500
O 	O 	0.97816 0.40973 0.94798 -0.39100
O 	O 	0.99850 0.45584 0.93546 -0.39600
O 	O 	0.00309 0.44754 0.99800 -0.77200
C 	C 	0.99477 0.58931 0.94142 0.30300
O 	O 	0.98292 0.60506 0.96407 -0.39100
O 	O 	0.99986 0.55995 0.94457 -0.39600
O 	O 	0.95265 0.40236 0.00915 -0.39800
O 	O 	0.94130 0.45181 0.99954 -0.40100
O 	O 	0.03875 0.39628 0.96972 -0.40100
O 	O 	0.06272 0.44156 0.97859 -0.39200
Co	Co	0.54762 0.01810 0.02860 1.18900
Co	Co	0.47619 0.97136 0.97862 1.18900
Co	Co	0.47354 0.01566 0.02757 1.18700
Co	Co	0.54990 0.97400 0.97988 1.18800
C 	C 	0.59205 0.98862 0.07166 0.30400
Co	Co	0.61492 0.99416 0.00735 1.16700
Co	Co	0.40894 0.98693 0.00379 1.16800
C 	C 	0.59993 0.00196 0.94011 0.29900
O 	O 	0.40142 0.02894 0.02387 -0.40700
O 	O 	0.45620 0.99420 0.00117 -0.77200
C 	C 	0.41710 0.05340 0.01691 0.30900
O 	O 	0.50967 0.03538 0.04797 -0.46400
O 	O 	0.51407 0.95442 0.95884 -0.46900
C 	C 	0.42569 0.99666 0.93736 0.29800
O 	O 	0.51149 0.00521 0.99416 -0.58300
C 	C 	0.42908 0.98348 0.06868 0.30400
C 	C 	0.60129 0.06021 0.01937 0.30800
C 	C 	0.59527 0.92988 0.00053 0.31200
O 	O 	0.44715 0.05357 0.01883 -0.38900
O 	O 	0.61897 0.03716 0.02658 -0.40200
O 	O 	0.57131 0.05803 0.02123 -0.38800
O 	O 	0.40817 0.00555 0.96040 -0.38700
O 	O 	0.44762 0.97610 0.94107 -0.38300
O 	O 	0.41371 0.96918 0.04734 -0.39000
O 	O 	0.45809 0.99046 0.06443 -0.39700
O 	O 	0.61489 0.95010 0.99035 -0.39600
O 	O 	0.56634 0.93722 0.00351 -0.40300
O 	O 	0.56739 0.99857 0.00280 -0.77400
C 	C 	0.43310 0.92423 0.99746 0.31300
O 	O 	0.41286 0.94325 0.98625 -0.39600
O 	O 	0.46153 0.93293 0.00102 -0.40000
O 	O 	0.61059 0.97686 0.05112 -0.38900
O 	O 	0.56293 0.99287 0.06527 -0.40100
O 	O 	0.61614 0.01220 0.96346 -0.38700
O 	O 	0.57966 0.97984 0.94345 -0.38200
C 	C 	0.84494 0.61596 0.00685 0.14000
C 	C 	0.86928 0.63621 0.00344 -0.10000
H 	H 	0.86484 0.66007 0.99975 0.06900
C 	C 	0.89931 0.62582 0.00527 0.04600
H 	H 	0.91791 0.64174 0.00265 0.02700
C 	C 	0.90532 0.59503 0.01077 -0.10200
C 	C 	0.88088 0.57458 0.01339 0.04500
H 	H 	0.88515 0.55077 0.01761 0.03500
C 	C 	0.85080 0.58505 0.01142 -0.09500
H 	H 	0.83205 0.56931 0.01397 0.07400
N 	N 	0.81414 0.62716 0.00691 -0.18000
C 	C 	0.80032 0.63421 0.97975 0.19800
C 	C 	0.77363 0.65200 0.97946 -0.07900
C 	C 	0.76122 0.66195 0.00723 0.06200
C 	C 	0.77327 0.65102 0.03477 -0.07900
C 	C 	0.80009 0.63346 0.03419 0.19800
C 	C 	0.75921 0.65990 0.95200 0.01200
C 	C 	0.73423 0.67958 0.95215 -0.05600
C 	C 	0.72487 0.69375 0.97958 0.01800
C 	C 	0.73677 0.68289 0.00747 -0.02800
C 	C 	0.72415 0.69238 0.03557 0.01800
C 	C 	0.75833 0.65769 0.06231 0.01200
C 	C 	0.73313 0.67710 0.06254 -0.05600
C 	C 	0.70394 0.71842 0.97976 0.01700
C 	C 	0.69277 0.72961 0.00804 -0.02700
C 	C 	0.70291 0.71683 0.03602 0.01700
O 	O 	0.81254 0.62428 0.05996 -0.19700
O 	O 	0.81276 0.62538 0.95384 -0.19700
H 	H 	0.76569 0.64733 0.08348 0.04700
H 	H 	0.71989 0.67884 0.08326 0.04900
H 	H 	0.76687 0.65037 0.93054 0.04700
H 	H 	0.72147 0.68248 0.93129 0.04900
C 	C 	0.69354 0.73043 0.06375 -0.05600
C 	C 	0.67282 0.75440 0.06378 0.01100
C 	C 	0.66280 0.76719 0.03626 -0.07800
C 	C 	0.67289 0.75500 0.00838 0.06100
C 	C 	0.69597 0.73381 0.95255 -0.05600
C 	C 	0.67556 0.75803 0.95311 0.01200
C 	C 	0.66431 0.76911 0.98091 -0.07800
C 	C 	0.64449 0.79344 0.03616 0.19800
N 	N 	0.63827 0.80809 0.00929 -0.18000
C 	C 	0.64626 0.79552 0.98183 0.19900
C 	C 	0.62656 0.83852 0.01004 0.14000
C 	C 	0.59582 0.84425 0.00338 -0.09500
C 	C 	0.58521 0.87410 0.00124 0.04400
C 	C 	0.60537 0.89842 0.00579 -0.10000
C 	C 	0.63584 0.89252 0.01369 0.04600
C 	C 	0.64637 0.86273 0.01569 -0.09800
O 	O 	0.63420 0.80461 0.06210 -0.19600
O 	O 	0.63812 0.80895 0.95621 -0.19700
H 	H 	0.58039 0.82560 0.99913 0.07400
H 	H 	0.56163 0.87829 0.99521 0.03600
H 	H 	0.67009 0.85840 0.02101 0.07000
H 	H 	0.65147 0.91103 0.01784 0.02900
H 	H 	0.70348 0.72386 0.08527 0.04800
H 	H 	0.66583 0.76403 0.08542 0.04700
H 	H 	0.70682 0.72842 0.93112 0.04800
H 	H 	0.66968 0.76908 0.93182 0.04700
C 	C 	0.84202 0.39078 0.99252 0.13900
C 	C 	0.84723 0.41978 0.00454 -0.09400
H 	H 	0.82863 0.43241 0.01469 0.07400
C 	C 	0.87687 0.43156 0.00527 0.04400
H 	H 	0.88097 0.45320 0.01613 0.03400
C 	C 	0.90135 0.41445 0.99377 -0.10000
C 	C 	0.89559 0.38669 0.97935 0.04500
H 	H 	0.91421 0.37366 0.96969 0.02600
C 	C 	0.86612 0.37485 0.97890 -0.09800
H 	H 	0.86218 0.35263 0.96925 0.06900
N 	N 	0.81324 0.37589 0.99742 -0.17900
C 	C 	0.79505 0.36936 0.97286 0.19700
C 	C 	0.77216 0.34712 0.97534 -0.07800
C 	C 	0.76702 0.33313 0.00368 0.06200
C 	C 	0.78343 0.34276 0.02941 -0.07800
C 	C 	0.80647 0.36464 0.02585 0.19800
C 	C 	0.75574 0.33746 0.94962 0.01100
C 	C 	0.73481 0.31372 0.95198 -0.05600
C 	C 	0.72895 0.29984 0.98050 0.01700
C 	C 	0.74629 0.30877 0.00614 -0.02800
C 	C 	0.74373 0.29284 0.03403 0.01700
C 	C 	0.77735 0.32962 0.05801 0.01200
C 	C 	0.75726 0.30521 0.06043 -0.05600
C 	C 	0.70771 0.27572 0.98358 0.01700
C 	C 	0.70869 0.25717 0.00992 -0.02800
C 	C 	0.72748 0.26508 0.03486 0.01700
O 	O 	0.82285 0.37296 0.04960 -0.19700
O 	O 	0.79989 0.38303 0.94652 -0.19700
H 	H 	0.78822 0.33818 0.07843 0.04700
H 	H 	0.75153 0.29675 0.08288 0.04900
H 	H 	0.75987 0.34761 0.92748 0.04700
H 	H 	0.72466 0.30512 0.93128 0.04900
C 	C 	0.73124 0.24414 0.05899 -0.05600
C 	C 	0.71440 0.21733 0.05967 0.01100
C 	C 	0.69418 0.21033 0.03586 -0.07900
C 	C 	0.69120 0.23032 0.01107 0.06200
C 	C 	0.68524 0.26999 0.96128 -0.05600
C 	C 	0.66752 0.24373 0.96281 0.01100
C 	C 	0.67108 0.22329 0.98720 -0.07800
C 	C 	0.67742 0.18317 0.03605 0.19800
N 	N 	0.65861 0.17615 0.01210 -0.18000
C 	C 	0.65475 0.19584 0.98815 0.19800
C 	C 	0.64317 0.14745 0.01188 0.13900
C 	C 	0.65773 0.12183 0.99982 -0.09600
C 	C 	0.64381 0.09343 0.00177 0.04200
C 	C 	0.61516 0.09043 0.01583 -0.09900
C 	C 	0.60027 0.11628 0.02723 0.04300
C 	C 	0.61427 0.14465 0.02527 -0.09500
O 	O 	0.67999 0.16424 0.05921 -0.19800
O 	O 	0.63604 0.18883 0.96575 -0.19700
H 	H 	0.68004 0.12392 0.98938 0.06900
H 	H 	0.65534 0.07375 0.99251 0.02700
H 	H 	0.60296 0.16438 0.03465 0.07200
H 	H 	0.57820 0.11432 0.03821 0.03800
H 	H 	0.74828 0.24768 0.07641 0.04900
H 	H 	0.71763 0.20173 0.07850 0.04600
H 	H 	0.68043 0.28634 0.94353 0.04900
H 	H 	0.65087 0.23950 0.94510 0.04700
C 	C 	0.39933 0.83471 0.00932 0.13900
C 	C 	0.38336 0.85936 0.02160 -0.09800
H 	H 	0.36085 0.85609 0.03126 0.07000
C 	C 	0.39554 0.88848 0.01973 0.04700
H 	H 	0.38245 0.90752 0.02826 0.02800
C 	C 	0.42376 0.89326 0.00539 -0.10100
C 	C 	0.44087 0.86831 0.99523 0.04600
H 	H 	0.46284 0.87169 0.98441 0.03400
C 	C 	0.42867 0.83906 0.99722 -0.09400
H 	H 	0.44128 0.82004 0.98802 0.07400
N 	N 	0.38410 0.80611 0.00568 -0.18000
C 	C 	0.37175 0.79893 0.97790 0.19900
C 	C 	0.34956 0.77603 0.97566 -0.07800
C 	C 	0.34143 0.75945 0.00185 0.06100
C 	C 	0.35599 0.76569 0.02970 -0.07800
C 	C 	0.37832 0.78859 0.03086 0.19800
C 	C 	0.33385 0.77123 0.94825 0.01200
C 	C 	0.30970 0.75082 0.94699 -0.05600
C 	C 	0.30222 0.73265 0.97256 0.01700
C 	C 	0.31769 0.73768 0.00051 -0.02700
C 	C 	0.30834 0.72251 0.02754 0.01700
C 	C 	0.34648 0.75079 0.05633 0.01100
C 	C 	0.32214 0.73052 0.05557 -0.05600
C 	C 	0.27802 0.71127 0.97142 0.01700
C 	C 	0.26747 0.69776 0.99872 -0.02800
C 	C 	0.28384 0.70138 0.02626 0.01700
O 	O 	0.39281 0.79404 0.05661 -0.19600
O 	O 	0.37951 0.81462 0.95347 -0.19700
H 	H 	0.35685 0.75606 0.07810 0.04700
H 	H 	0.31308 0.72265 0.07706 0.04800
H 	H 	0.33928 0.78445 0.92812 0.04700
H 	H 	0.29582 0.75068 0.92667 0.04800
C 	C 	0.27559 0.68334 0.05170 -0.05600
C 	C 	0.24848 0.66678 0.05153 0.01200
C 	C 	0.23048 0.66561 0.02510 -0.07900
C 	C 	0.24082 0.67970 0.99828 0.06300
C 	C 	0.26437 0.70265 0.94352 -0.05600
C 	C 	0.23731 0.68605 0.94342 0.01200
C 	C 	0.22485 0.67534 0.97091 -0.07900
C 	C 	0.20262 0.64975 0.02472 0.19800
N 	N 	0.18603 0.64780 0.99827 -0.18000
C 	C 	0.19703 0.65950 0.97140 0.19800
C 	C 	0.15660 0.63351 0.99873 0.14000
C 	C 	0.15357 0.60332 0.98947 -0.09500
C 	C 	0.12471 0.59003 0.98783 0.04300
C 	C 	0.09855 0.60688 0.99555 -0.09800
C 	C 	0.10178 0.63692 0.00562 0.04400
C 	C 	0.13068 0.65018 0.00707 -0.09700
O 	O 	0.19224 0.63710 0.04994 -0.19700
O 	O 	0.18115 0.65642 0.94607 -0.19700
H 	H 	0.17356 0.59036 0.98305 0.07200
H 	H 	0.12269 0.56684 0.98006 0.03800
H 	H 	0.13295 0.67349 0.01434 0.07000
H 	H 	0.08193 0.65004 0.01218 0.02900
H 	H 	0.29073 0.68066 0.07092 0.04900
H 	H 	0.24206 0.65410 0.07172 0.04700
H 	H 	0.27533 0.70730 0.92193 0.04800
H 	H 	0.22661 0.68077 0.92181 0.04600
C 	C 	0.36884 0.13676 0.00353 0.13900
C 	C 	0.39822 0.13311 0.99142 -0.09500
H 	H 	0.40852 0.15115 0.97820 0.07200
C 	C 	0.41413 0.10600 0.99600 0.04300
H 	H 	0.43661 0.10322 0.98609 0.03400
C 	C 	0.40077 0.08237 0.01288 -0.10100
C 	C 	0.37145 0.08631 0.02531 0.04200
H 	H 	0.36098 0.06846 0.03867 0.03300
C 	C 	0.35558 0.11335 0.02057 -0.09800
H 	H 	0.33290 0.11612 0.02998 0.06900
N 	N 	0.35198 0.16412 0.99787 -0.18000
C 	C 	0.33559 0.16693 0.97141 0.19900
C 	C 	0.31539 0.19144 0.96739 -0.07900
C 	C 	0.31303 0.21361 0.99027 0.06200
C 	C 	0.33053 0.21069 0.01696 -0.07900
C 	C 	0.35067 0.18599 0.02000 0.19800
C 	C 	0.29630 0.19298 0.94178 0.01200
C 	C 	0.27495 0.21622 0.93894 -0.05600
C 	C 	0.27380 0.24002 0.96050 0.01700
C 	C 	0.29223 0.23803 0.98700 -0.02700
C 	C 	0.28876 0.25928 0.01103 0.01700
C 	C 	0.32634 0.23127 0.04095 0.01200
C 	C 	0.30483 0.25444 0.03860 -0.05600
C 	C 	0.25300 0.26457 0.95726 0.01700
C 	C 	0.24845 0.28472 0.98189 -0.02800
C 	C 	0.26766 0.28362 0.00776 0.01700
O 	O 	0.36791 0.18355 0.04450 -0.19700
O 	O 	0.33820 0.14618 0.94995 -0.20000
H 	H 	0.33873 0.22855 0.06216 0.04700
H 	H 	0.29961 0.26731 0.05887 0.04800
H 	H 	0.29700 0.17540 0.92457 0.04600
H 	H 	0.25828 0.21454 0.92091 0.04800
C 	C 	0.26572 0.30731 0.02942 -0.05600
C 	C 	0.24159 0.32797 0.02844 0.01200
C 	C 	0.22054 0.32716 0.00437 -0.07900
C 	C 	0.22501 0.30673 0.98026 0.06300
C 	C 	0.23709 0.26988 0.92969 -0.05700
C 	C 	0.21315 0.29074 0.92871 0.01200
C 	C 	0.20632 0.30853 0.95435 -0.07900
C 	C 	0.19531 0.34693 0.00361 0.19800
N 	N 	0.17557 0.34636 0.97937 -0.18000
C 	C 	0.18137 0.32863 0.95434 0.19800
C 	C 	0.14778 0.36359 0.98074 0.14000
C 	C 	0.12133 0.35047 0.99288 -0.09700
C 	C 	0.09379 0.36643 0.99251 0.04500
C 	C 	0.09251 0.39568 0.97996 -0.10000
C 	C 	0.11922 0.40908 0.96843 0.04500
C 	C 	0.14674 0.39304 0.96881 -0.09600
O 	O 	0.19021 0.36548 0.02660 -0.19700
O 	O 	0.16303 0.32983 0.93056 -0.19700
H 	H 	0.12208 0.32776 0.00221 0.07000
H 	H 	0.07344 0.35602 0.00181 0.02700
H 	H 	0.16715 0.40324 0.95941 0.07200
H 	H 	0.11854 0.43159 0.95858 0.03600
H 	H 	0.28352 0.31086 0.04602 0.04900
H 	H 	0.23989 0.34515 0.04599 0.04700
H 	H 	0.24405 0.25915 0.90867 0.04800
H 	H 	0.20048 0.29355 0.90769 0.04600
C 	C 	0.63068 0.01739 0.84872 0.13900
C 	C 	0.65037 0.02258 0.87330 -0.09700
H 	H 	0.67401 0.02831 0.86912 0.06900
C 	C 	0.63994 0.01913 0.90324 0.04200
H 	H 	0.65572 0.02223 0.92196 0.03200
C 	C 	0.60966 0.01021 0.90887 -0.09500
C 	C 	0.58953 0.00663 0.88420 0.04100
H 	H 	0.56597 0.00039 0.88819 0.03100
C 	C 	0.60003 0.01019 0.85425 -0.09400
H 	H 	0.58466 0.00646 0.83532 0.07200
N 	N 	0.64254 0.01697 0.81811 -0.18000
C 	C 	0.65065 0.98982 0.80519 0.19800
C 	C 	0.66732 0.98920 0.77770 -0.07900
C 	C 	0.67505 0.01663 0.76342 0.06200
C 	C 	0.66467 0.04414 0.77579 -0.07900
C 	C 	0.64786 0.04380 0.80321 0.19800
C 	C 	0.67747 0.96169 0.76514 0.01100
C 	C 	0.69550 0.96150 0.73883 -0.05600
C 	C 	0.70304 0.98891 0.72392 0.01700
C 	C 	0.69395 0.01666 0.73726 -0.02800
C 	C 	0.70444 0.04446 0.72515 0.01700
C 	C 	0.67175 0.07152 0.76098 0.01100
C 	C 	0.69105 0.07167 0.73556 -0.05600
C 	C 	0.72154 0.98937 0.69729 0.01700
C 	C 	0.73589 0.01668 0.68849 -0.02800
C 	C 	0.72800 0.04428 0.70286 0.01700
O 	O 	0.63803 0.06943 0.81511 -0.19700
O 	O 	0.64372 0.96424 0.81913 -0.19600
H 	H 	0.66237 0.09276 0.76908 0.04700
H 	H 	0.69453 0.09273 0.72343 0.04900
H 	H 	0.67213 0.94037 0.77617 0.04700
H 	H 	0.70494 0.94016 0.73126 0.04900
C 	C 	0.74542 0.07045 0.69642 -0.05600
C 	C 	0.76875 0.06956 0.67468 0.01100
C 	C 	0.77590 0.04238 0.65959 -0.07900
C 	C 	0.75899 0.01614 0.66597 0.06200
C 	C 	0.72602 0.96328 0.67922 -0.05600
C 	C 	0.74836 0.96301 0.65643 0.01100
C 	C 	0.76589 0.98904 0.65064 -0.07900
C 	C 	0.80085 0.04058 0.63940 0.19800
N 	N 	0.80903 0.01328 0.62686 -0.18000
C 	C 	0.79092 0.98822 0.63047 0.19800
C 	C 	0.83865 0.01006 0.61311 0.14000
C 	C 	0.84389 0.02043 0.58329 -0.09500
C 	C 	0.87361 0.02112 0.57154 0.04500
C 	C 	0.89821 0.01149 0.58964 -0.10100
C 	C 	0.89263 0.99954 0.61880 0.04600
C 	C 	0.86301 0.99888 0.63048 -0.09900
O 	O 	0.81728 0.06492 0.63362 -0.19700
O 	O 	0.79776 0.96293 0.61603 -0.19700
H 	H 	0.82512 0.02890 0.56969 0.07400
H 	H 	0.87761 0.03025 0.54893 0.03400
H 	H 	0.85903 0.99063 0.65343 0.06900
H 	H 	0.91139 0.99153 0.63275 0.02600
H 	H 	0.74229 0.09103 0.70939 0.04800
H 	H 	0.78185 0.08990 0.67032 0.04700
H 	H 	0.71160 0.94360 0.68193 0.04900
H 	H 	0.75204 0.94247 0.64342 0.04700
C 	C 	0.14558 0.99911 0.63841 0.14000
C 	C 	0.11963 0.01273 0.65113 -0.09700
H 	H 	0.12099 0.02363 0.67320 0.07100
C 	C 	0.09174 0.01155 0.63579 0.04300
H 	H 	0.07176 0.02193 0.64595 0.02900
C 	C 	0.08959 0.99665 0.60759 -0.10000
C 	C 	0.11588 0.98389 0.59440 0.04400
H 	H 	0.11459 0.97234 0.57266 0.03600
C 	C 	0.14375 0.98513 0.60979 -0.09600
H 	H 	0.16375 0.97457 0.59990 0.07200
N 	N 	0.17332 0.99739 0.65573 -0.18100
C 	C 	0.17831 0.97287 0.67433 0.19800
C 	C 	0.20419 0.97183 0.69324 -0.07900
C 	C 	0.22458 0.99633 0.69320 0.06200
C 	C 	0.22041 0.02010 0.67231 -0.07900
C 	C 	0.19421 0.02041 0.65374 0.19800
C 	C 	0.21035 0.94639 0.71147 0.01200
C 	C 	0.23554 0.94617 0.73087 -0.05700
C 	C 	0.25364 0.97243 0.73432 0.01700
C 	C 	0.24950 0.99674 0.71370 -0.02800
C 	C 	0.27061 0.02095 0.71270 0.01700
C 	C 	0.24282 0.04262 0.66961 0.01200
C 	C 	0.26835 0.04228 0.68863 -0.05600
C 	C 	0.27631 0.97452 0.75732 0.01700
C 	C 	0.29717 0.99903 0.75688 -0.02700
C 	C 	0.29397 0.02274 0.73521 0.01700
O 	O 	0.18950 0.04312 0.63474 -0.19800
O 	O 	0.15847 0.95046 0.67492 -0.19600
H 	H 	0.24109 0.05989 0.65210 0.04600
H 	H 	0.28687 0.05752 0.68341 0.04800
H 	H 	0.19616 0.92638 0.71006 0.04600
H 	H 	0.24167 0.92513 0.74192 0.04800
C 	C 	0.31293 0.04854 0.73783 -0.05600
C 	C 	0.33677 0.04910 0.75886 0.01100
C 	C 	0.34067 0.02525 0.77970 -0.07800
C 	C 	0.32036 0.00067 0.77933 0.06200
C 	C 	0.27726 0.95383 0.78196 -0.05600
C 	C 	0.30071 0.95506 0.80332 0.01200
C 	C 	0.32242 0.97834 0.80213 -0.07900
C 	C 	0.36357 0.02645 0.80220 0.19800
N 	N 	0.36491 0.00474 0.82457 -0.18000
C 	C 	0.34523 0.98061 0.82455 0.19800
C 	C 	0.38554 0.00847 0.84977 0.13700
C 	C 	0.41051 0.98885 0.85306 -0.09300
C 	C 	0.42557 0.98668 0.88108 0.03900
C 	C 	0.41582 0.00433 0.90598 -0.09400
C 	C 	0.39335 0.02664 0.90134 0.03800
C 	C 	0.37806 0.02843 0.87346 -0.09500
O 	O 	0.38355 0.04873 0.80199 -0.19800
O 	O 	0.34718 0.95985 0.84614 -0.19700
H 	H 	0.41688 0.97389 0.83456 0.07200
H 	H 	0.44366 0.97017 0.88383 0.04000
H 	H 	0.35923 0.04412 0.87081 0.07100
H 	H 	0.38659 0.04149 0.91981 0.03700
H 	H 	0.30837 0.06891 0.72498 0.04800
H 	H 	0.35133 0.06887 0.75980 0.04700
H 	H 	0.25904 0.93781 0.78575 0.04800
H 	H 	0.30120 0.93847 0.82156 0.04700
C 	C 	0.15112 0.98523 0.36718 0.14000
C 	C 	0.12524 0.99339 0.35033 -0.09700
H 	H 	0.12742 0.99934 0.32645 0.06900
C 	C 	0.09651 0.99364 0.36421 0.04300
H 	H 	0.07670 0.00012 0.35097 0.02700
C 	C 	0.09340 0.98551 0.39508 -0.09900
C 	C 	0.11951 0.97776 0.41203 0.04300
H 	H 	0.11754 0.97138 0.43582 0.03800
C 	C 	0.14822 0.97768 0.39810 -0.09500
H 	H 	0.16818 0.97139 0.41120 0.07200
N 	N 	0.18044 0.98376 0.35252 -0.18000
C 	C 	0.19733 0.00969 0.34912 0.19800
C 	C 	0.22474 0.00917 0.33233 -0.07900
C 	C 	0.23440 0.98194 0.31889 0.06200
C 	C 	0.21829 0.95513 0.32488 -0.07900
C 	C 	0.19090 0.95652 0.34163 0.19800
C 	C 	0.24296 0.03514 0.32951 0.01200
C 	C 	0.26950 0.03444 0.31186 -0.05600
C 	C 	0.27690 0.00847 0.29443 0.01700
C 	C 	0.26048 0.98144 0.29981 -0.02800
C 	C 	0.27044 0.95374 0.28704 0.01700
C 	C 	0.23017 0.92734 0.31483 0.01200
C 	C 	0.25676 0.92652 0.29728 -0.05700
C 	C 	0.30061 0.00877 0.27218 0.01700
C 	C 	0.30946 0.98129 0.25788 -0.02700
C 	C 	0.29410 0.95382 0.26476 0.01700
O 	O 	0.17487 0.93169 0.34628 -0.19700
O 	O 	0.18758 0.03529 0.36118 -0.19700
H 	H 	0.21940 0.90621 0.32134 0.04600
H 	H 	0.26737 0.90482 0.29317 0.04800
H 	H 	0.23714 0.05570 0.34168 0.04700
H 	H 	0.28489 0.05346 0.31320 0.04900
C 	C 	0.30113 0.92762 0.24754 -0.05600
C 	C 	0.32479 0.92789 0.22627 0.01100
C 	C 	0.34032 0.95484 0.21960 -0.07900
C 	C 	0.33254 0.98161 0.23514 0.06100
C 	C 	0.31404 0.03621 0.26222 -0.05600
C 	C 	0.33765 0.03606 0.24088 0.01100
C 	C 	0.34677 0.00896 0.22691 -0.07900
C 	C 	0.36199 0.95598 0.19586 0.19800
N 	N 	0.37392 0.98320 0.18674 -0.18000
C 	C 	0.36835 0.00908 0.20305 0.19800
C 	C 	0.38860 0.98537 0.15747 0.14000
C 	C 	0.41970 0.97851 0.15436 -0.09500
C 	C 	0.43332 0.97855 0.12542 0.04500
C 	C 	0.41579 0.98538 0.09947 -0.10100
C 	C 	0.38489 0.99299 0.10283 0.04300
C 	C 	0.37139 0.99297 0.13167 -0.09900
O 	O 	0.36978 0.93096 0.18140 -0.19700
O 	O 	0.38229 0.03446 0.19552 -0.19700
H 	H 	0.43310 0.97265 0.17425 0.07400
H 	H 	0.45720 0.97262 0.12313 0.03700
H 	H 	0.34739 0.99837 0.13400 0.06800
H 	H 	0.37126 0.99868 0.08302 0.02400
H 	H 	0.28729 0.90748 0.24908 0.04800
H 	H 	0.32991 0.90731 0.21383 0.04700
H 	H 	0.30518 0.05787 0.26943 0.04800
H 	H 	0.34775 0.05742 0.23410 0.04700
C 	C 	0.62192 0.98423 0.16443 0.14000
C 	C 	0.64152 0.99500 0.14160 -0.09700
H 	H 	0.66466 0.00145 0.14724 0.06900
C 	C 	0.63150 0.99696 0.11144 0.04200
H 	H 	0.64694 0.00512 0.09394 0.02800
C 	C 	0.60173 0.98819 0.10382 -0.09900
C 	C 	0.58183 0.97803 0.12685 0.04400
H 	H 	0.55882 0.97109 0.12128 0.03800
C 	C 	0.59196 0.97602 0.15706 -0.09500
H 	H 	0.57674 0.96769 0.17464 0.07300
N 	N 	0.63303 0.98048 0.19503 -0.18000
C 	C 	0.63209 0.00451 0.21482 0.19800
C 	C 	0.64929 0.00375 0.24192 -0.07900
C 	C 	0.66722 0.97818 0.24835 0.06300
C 	C 	0.66469 0.95236 0.22991 -0.07900
C 	C 	0.64715 0.95389 0.20308 0.19800
C 	C 	0.64876 0.02796 0.26262 0.01200
C 	C 	0.66780 0.02767 0.28817 -0.05600
C 	C 	0.68978 0.00441 0.29191 0.01800
C 	C 	0.68777 0.97845 0.27319 -0.02800
C 	C 	0.70577 0.95260 0.27934 0.01800
C 	C 	0.67965 0.92555 0.23855 0.01200
C 	C 	0.69902 0.92533 0.26382 -0.05600
C 	C 	0.71369 0.00650 0.31380 0.01700
C 	C 	0.73370 0.98150 0.31810 -0.02700
C 	C 	0.73006 0.95462 0.30072 0.01700
O 	O 	0.64543 0.93017 0.18494 -0.19600
O 	O 	0.61611 0.02885 0.20781 -0.19600
H 	H 	0.67588 0.90470 0.22613 0.04700
H 	H 	0.70741 0.90380 0.27202 0.04900
H 	H 	0.63310 0.04671 0.25945 0.04700
H 	H 	0.66417 0.04458 0.30556 0.04900
C 	C 	0.75232 0.93149 0.30318 -0.05600
C 	C 	0.77621 0.93394 0.32394 0.01200
C 	C 	0.77995 0.96038 0.34120 -0.07800
C 	C 	0.75872 0.98414 0.33841 0.06200
C 	C 	0.71963 0.03381 0.32961 -0.05600
C 	C 	0.74333 0.03555 0.35068 0.01200
C 	C 	0.76336 0.01110 0.35477 -0.07800
C 	C 	0.80593 0.96436 0.35964 0.19800
N 	N 	0.81110 0.99160 0.37366 -0.18000
C 	C 	0.78941 0.01397 0.37332 0.19800
C 	C 	0.84099 0.99816 0.38534 0.13900
C 	C 	0.85010 0.98681 0.41381 -0.09400
C 	C 	0.87991 0.99155 0.42414 0.04300
C 	C 	0.90077 0.00785 0.40606 -0.09900
C 	C 	0.89123 0.01983 0.37791 0.04200
C 	C 	0.86155 0.01489 0.36760 -0.09700
O 	O 	0.82606 0.94230 0.36229 -0.19600
O 	O 	0.79357 0.03880 0.38946 -0.19700
H 	H 	0.83425 0.97391 0.42762 0.07400
H 	H 	0.88689 0.98211 0.44586 0.03800
H 	H 	0.85457 0.02374 0.34563 0.06900
H 	H 	0.90685 0.03280 0.36389 0.03500
H 	H 	0.75243 0.91238 0.28785 0.04800
H 	H 	0.79270 0.91569 0.32544 0.04700
H 	H 	0.70725 0.05432 0.32452 0.04900
H 	H 	0.74702 0.05669 0.36265 0.04700
C 	C 	0.02776 0.15953 0.62122 0.13800
C 	C 	0.05089 0.14009 0.61081 -0.09300
H 	H 	0.07458 0.14549 0.61510 0.07300
C 	C 	0.04335 0.11269 0.59673 0.03900
H 	H 	0.06128 0.09702 0.59031 0.03100
C 	C 	0.01265 0.10500 0.59219 -0.09600
C 	C 	0.98966 0.12562 0.60035 0.04100
H 	H 	0.96589 0.11994 0.59687 0.03800
C 	C 	0.99717 0.15264 0.61505 -0.09600
H 	H 	0.97921 0.16761 0.62287 0.07100
N 	N 	0.03503 0.18438 0.64116 -0.18000
C 	C 	0.03010 0.21359 0.63153 0.19800
C 	C 	0.03109 0.23766 0.65258 -0.07900
C 	C 	0.03805 0.23150 0.68322 0.06300
C 	C 	0.04676 0.20211 0.69178 -0.07900
C 	C 	0.04456 0.17847 0.67041 0.19900
C 	C 	0.02563 0.26767 0.64341 0.01200
C 	C 	0.02511 0.29099 0.66494 -0.05600
C 	C 	0.02776 0.28438 0.69645 0.01800
C 	C 	0.03657 0.25482 0.70530 -0.02800
C 	C 	0.04471 0.24853 0.73587 0.01700
C 	C 	0.05788 0.19684 0.72132 0.01200
C 	C 	0.05821 0.22019 0.74273 -0.05700
C 	C 	0.02257 0.30679 0.71922 0.01700
C 	C 	0.02953 0.30017 0.75013 -0.02700
C 	C 	0.03976 0.27087 0.75871 0.01700
O 	O 	0.05030 0.15037 0.67891 -0.19900
O 	O 	0.02363 0.21902 0.60267 -0.19700
H 	H 	0.06715 0.17492 0.72753 0.04500
H 	H 	0.07031 0.21654 0.76387 0.04800
H 	H 	0.02241 0.27316 0.61953 0.04700
H 	H 	0.02423 0.31408 0.65682 0.04900
C 	C 	0.04271 0.26395 0.79010 -0.05600
C 	C 	0.03940 0.28647 0.81208 0.01200
C 	C 	0.03039 0.31581 0.80368 -0.07900
C 	C 	0.02461 0.32249 0.77286 0.06200
C 	C 	0.00853 0.33483 0.71214 -0.05500
C 	C 	0.00481 0.35701 0.73449 0.01200
C 	C 	0.01281 0.35106 0.76490 -0.07900
C 	C 	0.02537 0.33822 0.82593 0.19900
N 	N 	0.01342 0.36580 0.81786 -0.18100
C 	C 	0.00767 0.37277 0.78792 0.19900
C 	C 	0.00530 0.38699 0.84140 0.14100
C 	C 	0.97689 0.38464 0.85591 -0.09800
C 	C 	0.97150 0.39995 0.88327 0.04500
C 	C 	0.99451 0.41785 0.89626 -0.10100
C 	C 	0.02190 0.42238 0.88026 0.04300
C 	C 	0.02731 0.40689 0.85296 -0.09500
O 	O 	0.03172 0.33249 0.85477 -0.19800
O 	O 	0.99693 0.39975 0.78070 -0.19700
H 	H 	0.95967 0.36957 0.84687 0.07000
H 	H 	0.94999 0.39683 0.89506 0.03600
H 	H 	0.04921 0.40899 0.84170 0.07300
H 	H 	0.03972 0.43635 0.88992 0.02800
H 	H 	0.04585 0.24093 0.79784 0.04800
H 	H 	0.04253 0.28061 0.83589 0.04600
H 	H 	0.99885 0.33902 0.68990 0.04800
H 	H 	0.99451 0.37845 0.72822 0.04700
C 	C 	0.99029 0.85766 0.62825 0.13800
C 	C 	0.01073 0.86436 0.60454 -0.09300
H 	H 	0.02901 0.84875 0.59912 0.07300
C 	C 	0.00850 0.89192 0.58887 0.04100
H 	H 	0.02522 0.89745 0.57150 0.03100
C 	C 	0.98575 0.91295 0.59679 -0.09800
C 	C 	0.96417 0.90532 0.61928 0.04300
H 	H 	0.94606 0.92099 0.62515 0.03600
C 	C 	0.96654 0.87785 0.63498 -0.09700
H 	H 	0.95055 0.87267 0.65310 0.07000
N 	N 	0.99542 0.83175 0.64754 -0.18000
C 	C 	0.01658 0.83354 0.67048 0.19900
C 	C 	0.01931 0.80998 0.69200 -0.07900
C 	C 	0.00090 0.78411 0.68919 0.06200
C 	C 	0.97950 0.78253 0.66540 -0.07900
C 	C 	0.97761 0.80647 0.64415 0.19800
C 	C 	0.03888 0.81279 0.71713 0.01200
C 	C 	0.04025 0.79010 0.73923 -0.05600
C 	C 	0.02390 0.76276 0.73547 0.01700
C 	C 	0.00304 0.76033 0.71091 -0.02700
C 	C 	0.98313 0.73510 0.70884 0.01600
C 	C 	0.95916 0.75807 0.66415 0.01200
C 	C 	0.96005 0.73534 0.68629 -0.05600
C 	C 	0.02640 0.73867 0.75691 0.01700
C 	C 	0.00563 0.71422 0.75561 -0.02700
C 	C 	0.98544 0.71122 0.73065 0.01700
O 	O 	0.95833 0.80477 0.62117 -0.19700
O 	O 	0.03395 0.85778 0.67280 -0.19700
H 	H 	0.94163 0.75723 0.64677 0.04700
H 	H 	0.94169 0.71909 0.68671 0.04900
H 	H 	0.05219 0.83319 0.72034 0.04700
H 	H 	0.05267 0.79472 0.75995 0.04800
C 	C 	0.96870 0.68399 0.72765 -0.05600
C 	C 	0.96785 0.66297 0.75151 0.01200
C 	C 	0.98570 0.66733 0.77769 -0.07900
C 	C 	0.00576 0.69205 0.77900 0.06300
C 	C 	0.04974 0.73799 0.77916 -0.05600
C 	C 	0.04887 0.71686 0.80287 0.01200
C 	C 	0.02628 0.69437 0.80344 -0.07900
C 	C 	0.98440 0.64694 0.80243 0.19700
N 	N 	0.00265 0.65120 0.82745 -0.17900
C 	C 	0.02424 0.67367 0.82782 0.19800
C 	C 	0.99808 0.63294 0.85428 0.13800
C 	C 	0.97532 0.64080 0.87532 -0.09600
C 	C 	0.97322 0.62557 0.90322 0.04200
C 	C 	0.99405 0.60238 0.91040 -0.09700
C 	C 	0.01593 0.59359 0.88868 0.04100
C 	C 	0.01790 0.60882 0.86072 -0.09200
O 	O 	0.96511 0.62407 0.80184 -0.19600
O 	O 	0.04250 0.67645 0.85152 -0.19800
H 	H 	0.95983 0.65929 0.87036 0.07000
H 	H 	0.95580 0.63219 0.91946 0.03700
H 	H 	0.03544 0.60258 0.84447 0.07300
H 	H 	0.03209 0.57573 0.89388 0.03100
H 	H 	0.95767 0.67814 0.70646 0.04900
H 	H 	0.95394 0.64286 0.74912 0.04700
H 	H 	0.06935 0.75267 0.77744 0.04800
H 	H 	0.06635 0.71754 0.82030 0.04600
C 	C 	0.99125 0.84592 0.38749 0.14000
C 	C 	0.99476 0.87013 0.36711 -0.09800
H 	H 	0.99797 0.86579 0.34301 0.06900
C 	C 	0.99415 0.89989 0.37774 0.04400
H 	H 	0.99721 0.91839 0.36175 0.02700
C 	C 	0.98988 0.90580 0.40894 -0.09900
C 	C 	0.98653 0.88147 0.42945 0.04300
H 	H 	0.98314 0.88564 0.45356 0.03900
C 	C 	0.98720 0.85162 0.41870 -0.09400
H 	H 	0.98447 0.83296 0.43452 0.07400
N 	N 	0.99156 0.81537 0.37622 -0.18000
C 	C 	0.01896 0.80109 0.37144 0.19900
C 	C 	0.02043 0.77516 0.35282 -0.07800
C 	C 	0.99354 0.76400 0.33969 0.06200
C 	C 	0.96533 0.77635 0.34837 -0.07900
C 	C 	0.96476 0.80229 0.36700 0.19800
C 	C 	0.04820 0.76033 0.34714 0.01200
C 	C 	0.04946 0.73617 0.32661 -0.05600
C 	C 	0.02341 0.72812 0.30940 0.01800
C 	C 	0.99487 0.74051 0.31781 -0.02800
C 	C 	0.96761 0.72930 0.30494 0.01700
C 	C 	0.93829 0.76266 0.33832 0.01200
C 	C 	0.93944 0.73848 0.31782 -0.05600
C 	C 	0.02519 0.70787 0.28421 0.01700
C 	C 	0.99795 0.69807 0.26981 -0.02700
C 	C 	0.96914 0.70908 0.27971 0.01700
O 	O 	0.93849 0.81492 0.37434 -0.19500
O 	O 	0.04413 0.81251 0.38308 -0.19600
H 	H 	0.91635 0.77023 0.34683 0.04700
H 	H 	0.91867 0.72617 0.31329 0.04900
H 	H 	0.06875 0.76700 0.35906 0.04700
H 	H 	0.07021 0.72301 0.32540 0.04900
C 	C 	0.94285 0.70158 0.26264 -0.05600
C 	C 	0.94466 0.68140 0.23829 0.01100
C 	C 	0.97296 0.67002 0.22868 -0.07800
C 	C 	0.99966 0.67859 0.24414 0.06100
C 	C 	0.05359 0.69915 0.27154 -0.05600
C 	C 	0.05495 0.67896 0.24716 0.01100
C 	C 	0.02814 0.66878 0.23312 -0.07800
C 	C 	0.97521 0.65161 0.20255 0.19700
N 	N 	0.00324 0.64324 0.19149 -0.18000
C 	C 	0.02942 0.65036 0.20692 0.19800
C 	C 	0.00533 0.62904 0.16207 0.13900
C 	C 	0.00267 0.59753 0.15941 -0.09400
C 	C 	0.00316 0.58392 0.13060 0.04300
C 	C 	0.00631 0.60182 0.10420 -0.09700
C 	C 	0.00951 0.63335 0.10705 0.04200
C 	C 	0.00902 0.64685 0.13584 -0.09700
O 	O 	0.95029 0.64308 0.18815 -0.19700
O 	O 	0.05596 0.64055 0.19675 -0.19700
H 	H 	0.99992 0.58368 0.17964 0.07200
H 	H 	0.00100 0.55955 0.12883 0.03700
H 	H 	0.01106 0.67121 0.13782 0.06900
H 	H 	0.01175 0.64747 0.08693 0.02500
H 	H 	0.92125 0.71257 0.26687 0.04800
H 	H 	0.92401 0.67576 0.22601 0.04700
H 	H 	0.07465 0.70919 0.27919 0.04800
H 	H 	0.07707 0.67237 0.23831 0.04700
C 	C 	0.02484 0.15486 0.37091 0.13900
C 	C 	0.01835 0.15185 0.40211 -0.09300
H 	H 	0.01596 0.17181 0.41624 0.07400
C 	C 	0.01386 0.12309 0.41484 0.04100
H 	H 	0.00829 0.12105 0.43885 0.03300
C 	C 	0.01593 0.09712 0.39641 -0.09600
C 	C 	0.02389 0.10022 0.36547 0.04200
H 	H 	0.02567 0.08047 0.35095 0.03100
C 	C 	0.02820 0.12894 0.35282 -0.09700
H 	H 	0.03328 0.13117 0.32873 0.06900
N 	N 	0.02563 0.18436 0.35694 -0.18000
C 	C 	0.05309 0.19650 0.34837 0.19800
C 	C 	0.05408 0.22180 0.32873 -0.07900
C 	C 	0.02667 0.23565 0.31962 0.06200
C 	C 	0.99876 0.22393 0.33014 -0.07900
C 	C 	0.99875 0.19842 0.34948 0.19800
C 	C 	0.08185 0.23197 0.31656 0.01100
C 	C 	0.08241 0.25520 0.29498 -0.05600
C 	C 	0.05532 0.27074 0.28688 0.01700
C 	C 	0.02709 0.26036 0.29886 -0.02700
C 	C 	0.99917 0.27325 0.28880 0.01600
C 	C 	0.97128 0.23644 0.31965 0.01200
C 	C 	0.97142 0.25992 0.29837 -0.05600
C 	C 	0.05554 0.29489 0.26525 0.01700
C 	C 	0.02759 0.30637 0.25405 -0.02700
C 	C 	0.99965 0.29758 0.26749 0.01600
O 	O 	0.97269 0.18729 0.35950 -0.19700
O 	O 	0.07868 0.18390 0.35782 -0.19700
H 	H 	0.94961 0.22706 0.32685 0.04700
H 	H 	0.94996 0.26631 0.28815 0.04800
H 	H 	0.10305 0.22087 0.32262 0.04700
H 	H 	0.10370 0.25968 0.28346 0.04800
C 	C 	0.97285 0.31362 0.25947 -0.05600
C 	C 	0.97282 0.33325 0.23445 0.01100
C 	C 	0.00003 0.33928 0.21866 -0.07800
C 	C 	0.02761 0.32738 0.22962 0.06200
C 	C 	0.08304 0.30814 0.25477 -0.05600
C 	C 	0.08291 0.32774 0.22969 0.01200
C 	C 	0.05522 0.33659 0.21631 -0.07900
C 	C 	0.00021 0.35731 0.19215 0.19900
N 	N 	0.02717 0.36331 0.17738 -0.18000
C 	C 	0.05456 0.35486 0.18993 0.19800
C 	C 	0.02651 0.37629 0.14727 0.13900
C 	C 	0.02892 0.35746 0.12168 -0.09700
C 	C 	0.02418 0.36920 0.09246 0.04200
C 	C 	0.01672 0.39996 0.08856 -0.09500
C 	C 	0.01589 0.41913 0.11413 0.04100
C 	C 	0.02080 0.40732 0.14337 -0.09300
O 	O 	0.97430 0.36736 0.18072 -0.19700
O 	O 	0.08028 0.36305 0.17669 -0.19700
H 	H 	0.03347 0.33351 0.12458 0.06900
H 	H 	0.02514 0.35413 0.07300 0.03300
H 	H 	0.01921 0.42203 0.16306 0.07300
H 	H 	0.01080 0.44301 0.11144 0.03100
H 	H 	0.95248 0.31220 0.27329 0.04900
H 	H 	0.95173 0.34428 0.22790 0.04700
H 	H 	0.10425 0.30472 0.26678 0.04800
H 	H 	0.10436 0.33658 0.22125 0.04700
