data_crystal

_cell_length_a 39.59312
_cell_length_b 37.81264
_cell_length_c 27.21728
_cell_angle_alpha 89.99871
_cell_angle_beta  89.99989
_cell_angle_gamma 89.99896

_symmetry_space_group_name_	'P 1'
_symmetry_space_group_name_H-M	'P 1'

loop_
_symmetry_equiv_pos_as_xyz
  x,y,z

loop_
_atom_site_label
_atom_site_type_symbol
_atom_site_fract_x
_atom_site_fract_y
_atom_site_fract_z
_atom_site_charge
Cu	Cu	0.11217 0.79418 0.30599 0.93300
Cu	Cu	0.12021 0.71858 0.24776 0.87700
Cu	Cu	0.12617 0.78851 0.19642 0.90200
Cu	Cu	0.13103 0.85993 0.24097 0.90300
C 	C 	0.14208 0.85580 0.34842 0.29400
O 	O 	0.06976 0.82396 0.30129 -0.34400
C 	C 	0.10638 0.72440 0.14471 0.28600
O 	O 	0.14547 0.81290 0.25142 -0.63900
O 	O 	0.09889 0.76508 0.24893 -0.63600
O 	O 	0.12013 0.75506 0.35309 -0.35200
O 	O 	0.15242 0.72397 0.29918 -0.42000
O 	O 	0.12957 0.87422 0.31153 -0.36600
O 	O 	0.15559 0.80998 0.14806 -0.36600
C 	C 	0.15983 0.84430 0.14157 0.29700
C 	C 	0.05897 0.83612 0.25884 0.28400
O 	O 	0.08056 0.84127 0.22285 -0.38100
O 	O 	0.15538 0.86726 0.17769 -0.37100
O 	O 	0.13326 0.82254 0.35531 -0.34700
C 	C 	0.14264 0.73040 0.34438 0.29500
O 	O 	0.10832 0.75924 0.14340 -0.36000
O 	O 	0.09920 0.70761 0.18590 -0.39600
H 	H 	0.17011 0.80960 0.25567 0.18100
H 	H 	0.07441 0.76445 0.24157 0.18700
Cu	Cu	0.23404 0.56310 0.82808 0.93300
Cu	Cu	0.17820 0.59730 0.75374 0.87400
Cu	Cu	0.22723 0.54716 0.71965 0.89700
Cu	Cu	0.26916 0.49729 0.77887 0.90200
C 	C 	0.25458 0.50346 0.88578 0.29600
O 	O 	0.28390 0.57479 0.82597 -0.34700
C 	C 	0.20542 0.60384 0.65422 0.29100
O 	O 	0.22680 0.52029 0.77976 -0.64000
O 	O 	0.22568 0.58770 0.76576 -0.64500
O 	O 	0.19953 0.58854 0.86699 -0.35300
O 	O 	0.15804 0.57734 0.81119 -0.41700
O 	O 	0.27693 0.49615 0.85131 -0.36700
O 	O 	0.22638 0.50694 0.67552 -0.36800
C 	C 	0.24794 0.48035 0.67720 0.29500
C 	C 	0.30221 0.56955 0.78631 0.28600
O 	O 	0.29290 0.54581 0.75374 -0.38300
O 	O 	0.25956 0.46826 0.71950 -0.37300
O 	O 	0.23642 0.53268 0.88403 -0.34800
C 	C 	0.16742 0.58757 0.85528 0.29700
O 	O 	0.22683 0.57760 0.66220 -0.36300
O 	O 	0.18741 0.61808 0.69021 -0.39500
H 	H 	0.20687 0.50478 0.78413 0.17600
H 	H 	0.24126 0.60725 0.75726 0.19200
Cu	Cu	0.36123 0.29444 0.20989 0.93200
Cu	Cu	0.35108 0.21889 0.26783 0.87600
Cu	Cu	0.34873 0.28903 0.31992 0.90100
Cu	Cu	0.34657 0.36068 0.27605 0.90200
C 	C 	0.33371 0.35772 0.16888 0.29300
O 	O 	0.40488 0.32221 0.21348 -0.34500
C 	C 	0.36630 0.22383 0.37054 0.28500
O 	O 	0.32968 0.31452 0.26572 -0.64000
O 	O 	0.37412 0.26448 0.26633 -0.63700
O 	O 	0.35116 0.25602 0.16247 -0.35200
O 	O 	0.31869 0.22570 0.21699 -0.42000
O 	O 	0.34764 0.37524 0.20555 -0.36600
O 	O 	0.32106 0.31172 0.36947 -0.36600
C 	C 	0.31805 0.34619 0.37603 0.29800
C 	C 	0.41709 0.33301 0.25583 0.28300
O 	O 	0.39637 0.33930 0.29254 -0.38100
O 	O 	0.32343 0.36904 0.34005 -0.37100
O 	O 	0.34065 0.32403 0.16156 -0.34700
C 	C 	0.32835 0.23175 0.17163 0.29500
O 	O 	0.36607 0.25872 0.37212 -0.36100
O 	O 	0.37235 0.20685 0.32912 -0.39600
H 	H 	0.30485 0.31255 0.26233 0.18100
H 	H 	0.39866 0.26268 0.27285 0.18600
Cu	Cu	0.23909 0.06103 0.68929 0.93300
Cu	Cu	0.29283 0.09891 0.76342 0.87400
Cu	Cu	0.24646 0.04596 0.79789 0.89800
Cu	Cu	0.20739 0.99346 0.73874 0.90000
C 	C 	0.22163 0.00021 0.63172 0.30300
O 	O 	0.18868 0.06984 0.69094 -0.34600
C 	C 	0.26564 0.10383 0.86307 0.29000
O 	O 	0.24845 0.01892 0.73796 -0.63900
O 	O 	0.24595 0.08635 0.75146 -0.64400
O 	O 	0.27247 0.08811 0.65044 -0.35300
O 	O 	0.31421 0.07935 0.70663 -0.41600
O 	O 	0.19977 0.99163 0.66630 -0.37100
O 	O 	0.24932 0.00598 0.84220 -0.36500
C 	C 	0.22909 0.97828 0.84065 0.29100
C 	C 	0.17045 0.06351 0.73039 0.28600
O 	O 	0.18100 0.04059 0.76329 -0.38200
O 	O 	0.21834 0.96530 0.79838 -0.37300
O 	O 	0.23851 0.03025 0.63361 -0.34900
C 	C 	0.30457 0.08853 0.66223 0.29700
O 	O 	0.24546 0.07653 0.85523 -0.36300
O 	O 	0.28241 0.11930 0.82680 -0.39400
H 	H 	0.26919 0.00459 0.73380 0.17700
H 	H 	0.22929 0.10495 0.75974 0.19100
Cu	Cu	0.71978 0.42423 0.31629 0.93300
Cu	Cu	0.78157 0.38501 0.25678 0.87600
Cu	Cu	0.73878 0.43463 0.20951 0.89700
Cu	Cu	0.69277 0.48799 0.25329 0.90200
C 	C 	0.69455 0.48711 0.36287 0.29300
O 	O 	0.67024 0.41439 0.30388 -0.34600
C 	C 	0.76484 0.37606 0.15270 0.28800
O 	O 	0.73371 0.46427 0.26655 -0.64100
O 	O 	0.73365 0.39623 0.25840 -0.64200
O 	O 	0.74897 0.39967 0.36509 -0.34700
O 	O 	0.79525 0.40655 0.31666 -0.41700
O 	O 	0.67713 0.49346 0.32244 -0.37000
O 	O 	0.74603 0.47242 0.16293 -0.37000
C 	C 	0.72501 0.49906 0.15692 0.29800
C 	C 	0.65697 0.41726 0.25973 0.28500
O 	O 	0.67086 0.43860 0.22739 -0.38100
O 	O 	0.70972 0.51383 0.19476 -0.37400
O 	O 	0.71225 0.45770 0.36793 -0.34600
C 	C 	0.78166 0.39639 0.35831 0.29600
O 	O 	0.74228 0.40169 0.15541 -0.36700
O 	O 	0.77915 0.36272 0.19263 -0.39000
H 	H 	0.75338 0.47954 0.27400 0.17600
H 	H 	0.71843 0.37693 0.24772 0.19200
Cu	Cu	0.87998 0.19659 0.80781 0.93200
Cu	Cu	0.86099 0.26559 0.74102 0.87600
Cu	Cu	0.85657 0.19141 0.70174 0.90100
Cu	Cu	0.85954 0.12396 0.75875 0.90200
C 	C 	0.85604 0.13858 0.86497 0.29400
O 	O 	0.92381 0.16973 0.79999 -0.34700
C 	C 	0.86665 0.25232 0.63785 0.28600
O 	O 	0.84366 0.17100 0.76343 -0.63900
O 	O 	0.88596 0.22116 0.74474 -0.63900
O 	O 	0.87283 0.23900 0.84896 -0.35900
O 	O 	0.83317 0.26234 0.79813 -0.42000
O 	O 	0.86660 0.11681 0.83046 -0.36500
O 	O 	0.82517 0.16382 0.66294 -0.36500
C 	C 	0.82337 0.12895 0.66248 0.29600
C 	C 	0.93135 0.15260 0.75941 0.28700
O 	O 	0.90729 0.14272 0.72914 -0.38200
O 	O 	0.83102 0.10982 0.70163 -0.37200
O 	O 	0.86566 0.17192 0.86529 -0.34800
C 	C 	0.84647 0.25933 0.84212 0.29500
O 	O 	0.86706 0.21750 0.64175 -0.35800
O 	O 	0.87613 0.27262 0.67478 -0.39600
H 	H 	0.81944 0.17364 0.77174 0.18100
H 	H 	0.90957 0.22290 0.73304 0.18700
Cu	Cu	0.75667 0.93430 0.19653 0.93300
Cu	Cu	0.70759 0.87339 0.24746 0.87600
Cu	Cu	0.73869 0.93309 0.30512 0.89900
Cu	Cu	0.77783 0.99561 0.26696 0.90200
C 	C 	0.77483 0.00174 0.15722 0.30400
O 	O 	0.80753 0.93170 0.20469 -0.34600
C 	C 	0.72127 0.86639 0.35127 0.28600
O 	O 	0.73938 0.96757 0.25283 -0.63700
O 	O 	0.74954 0.89991 0.25017 -0.64000
O 	O 	0.73091 0.91017 0.14351 -0.34600
O 	O 	0.68662 0.89576 0.19296 -0.41800
O 	O 	0.79158 0.00801 0.19827 -0.36600
O 	O 	0.73069 0.96635 0.35857 -0.36400
C 	C 	0.74852 0.99537 0.36613 0.28600
C 	C 	0.82133 0.93135 0.24864 0.28100
O 	O 	0.80646 0.94824 0.28490 -0.37700
O 	O 	0.75935 0.01471 0.32905 -0.36700
O 	O 	0.75697 0.97267 0.15136 -0.35700
C 	C 	0.70097 0.89580 0.14942 0.29200
O 	O 	0.73892 0.89591 0.35440 -0.36300
O 	O 	0.71734 0.84994 0.30884 -0.39500
H 	H 	0.71801 0.98071 0.24804 0.17700
H 	H 	0.76911 0.88458 0.25774 0.18500
Cu	Cu	0.60070 0.68549 0.70101 0.93100
Cu	Cu	0.63422 0.75440 0.75366 0.87400
Cu	Cu	0.61956 0.69064 0.80908 0.89900
Cu	Cu	0.60690 0.61825 0.76972 0.90100
C 	C 	0.61878 0.61735 0.66312 0.29000
O 	O 	0.55242 0.66952 0.70965 -0.34800
C 	C 	0.61931 0.75883 0.85813 0.28600
O 	O 	0.63068 0.66029 0.75523 -0.64300
O 	O 	0.59793 0.71920 0.75632 -0.63900
O 	O 	0.61539 0.71983 0.65027 -0.35500
O 	O 	0.65897 0.73832 0.69764 -0.41400
O 	O 	0.60410 0.60169 0.70073 -0.36800
O 	O 	0.64455 0.66434 0.85788 -0.37100
C 	C 	0.64608 0.62962 0.86233 0.30100
C 	C 	0.54075 0.65740 0.75153 0.28900
O 	O 	0.56171 0.64848 0.78675 -0.38000
O 	O 	0.62799 0.60816 0.83454 -0.37700
O 	O 	0.61159 0.65058 0.65234 -0.34000
C 	C 	0.64423 0.73646 0.65450 0.29600
O 	O 	0.60999 0.72532 0.86004 -0.36200
O 	O 	0.62146 0.77569 0.81563 -0.39200
H 	H 	0.65520 0.65746 0.74923 0.17300
H 	H 	0.57525 0.72840 0.76487 0.18900
C 	C 	0.63236 0.85953 0.06434 -0.03700
C 	C 	0.65202 0.84426 0.02663 0.02200
C 	C 	0.68742 0.84790 0.02772 -0.03800
C 	C 	0.70337 0.86169 0.06973 0.02400
C 	C 	0.68388 0.87859 0.10665 -0.08100
C 	C 	0.64819 0.87898 0.10223 0.02100
C 	C 	0.63606 0.82106 0.98862 0.02300
C 	C 	0.70747 0.83676 0.98587 0.10500
C 	C 	0.62788 0.90063 0.13479 0.09000
C 	C 	0.61906 0.83600 0.94803 -0.03500
C 	C 	0.60983 0.81440 0.90787 0.02200
C 	C 	0.62221 0.77930 0.90483 -0.06800
C 	C 	0.63908 0.76454 0.94591 0.02100
C 	C 	0.64250 0.78446 0.98930 -0.03500
C 	C 	0.61194 0.87359 0.94694 0.10500
C 	C 	0.65636 0.73088 0.94193 0.08900
C 	C 	0.58649 0.82770 0.87122 0.09700
C 	C 	0.65418 0.76769 0.03410 0.10300
C 	C 	0.59604 0.85472 0.06467 0.10400
C 	C 	0.73933 0.85614 0.07646 0.08900
N 	N 	0.56784 0.83834 0.84200 -0.10000
N 	N 	0.60627 0.90361 0.94611 -0.10200
N 	N 	0.67054 0.70420 0.93933 -0.09700
N 	N 	0.66351 0.75435 0.06988 -0.10600
N 	N 	0.72341 0.82784 0.95247 -0.10500
N 	N 	0.76802 0.85166 0.08173 -0.09400
N 	N 	0.61163 0.91792 0.16072 -0.10100
N 	N 	0.56704 0.85087 0.06489 -0.10200
C 	C 	0.67459 0.75594 0.52423 -0.03700
C 	C 	0.68635 0.79089 0.52914 0.02400
C 	C 	0.68595 0.80746 0.57549 -0.03600
C 	C 	0.67200 0.78985 0.61645 0.02400
C 	C 	0.65904 0.75510 0.61130 -0.07700
C 	C 	0.65939 0.73870 0.56442 0.02700
C 	C 	0.69574 0.81151 0.48443 0.02300
C 	C 	0.69951 0.84288 0.58085 0.10500
C 	C 	0.64205 0.70541 0.55647 0.09800
C 	C 	0.67048 0.82917 0.45733 -0.03500
C 	C 	0.67887 0.84691 0.41350 0.02100
C 	C 	0.71262 0.84742 0.39696 -0.07200
C 	C 	0.73803 0.83029 0.42448 0.02700
C 	C 	0.72957 0.81230 0.46818 -0.03500
C 	C 	0.63582 0.82895 0.47461 0.10300
C 	C 	0.77277 0.83091 0.40755 0.09700
C 	C 	0.65283 0.86487 0.38550 0.07000
C 	C 	0.75557 0.79445 0.49635 0.10700
C 	C 	0.67769 0.73789 0.47741 0.10600
C 	C 	0.66890 0.80842 0.66290 0.06700
N 	N 	0.63206 0.87919 0.36315 -0.11200
N 	N 	0.60818 0.82875 0.48846 -0.10300
N 	N 	0.80048 0.83143 0.39402 -0.09600
N 	N 	0.77629 0.78020 0.51887 -0.10100
N 	N 	0.71035 0.87115 0.58506 -0.10200
N 	N 	0.66643 0.82327 0.69990 -0.12400
N 	N 	0.62803 0.67902 0.54953 -0.09200
N 	N 	0.68019 0.72351 0.44005 -0.10300
C 	C 	0.74151 0.06217 0.46885 -0.03200
C 	C 	0.76568 0.04872 0.50201 0.01900
C 	C 	0.77910 0.01454 0.49482 -0.02400
C 	C 	0.77108 0.99545 0.45184 0.01000
C 	C 	0.74976 0.01063 0.41608 -0.06000
C 	C 	0.73330 0.04294 0.42609 0.02200
C 	C 	0.77890 0.07156 0.54246 0.02500
C 	C 	0.80168 0.99942 0.53111 0.09900
C 	C 	0.70793 0.05630 0.39244 0.09600
C 	C 	0.76324 0.07121 0.58900 -0.03600
C 	C 	0.77678 0.09150 0.62778 0.02600
C 	C 	0.80659 0.11136 0.62042 -0.07000
C 	C 	0.82121 0.11310 0.57317 0.02400
C 	C 	0.80739 0.09318 0.53426 -0.03600
C 	C 	0.73335 0.04982 0.59698 0.10700
C 	C 	0.85074 0.13501 0.56478 0.08900
C 	C 	0.75958 0.09271 0.67481 0.09300
C 	C 	0.82263 0.09463 0.48584 0.10600
C 	C 	0.72567 0.09607 0.47829 0.10600
C 	C 	0.78552 0.96068 0.44370 0.09000
N 	N 	0.74585 0.09368 0.71233 -0.09700
N 	N 	0.70949 0.03274 0.60328 -0.10000
N 	N 	0.87427 0.15252 0.55808 -0.09500
N 	N 	0.83475 0.09575 0.44718 -0.10200
N 	N 	0.81971 0.98740 0.56012 -0.10100
N 	N 	0.79701 0.93294 0.43715 -0.09700
N 	N 	0.68768 0.06694 0.36557 -0.09800
N 	N 	0.71306 0.12313 0.48587 -0.10000
C 	C 	0.78428 0.08118 0.07342 -0.03500
C 	C 	0.80185 0.06613 0.03349 0.02400
C 	C 	0.80865 0.02954 0.03280 -0.03800
C 	C 	0.79958 0.00832 0.07317 0.03200
C 	C 	0.78251 0.02347 0.11361 -0.07300
C 	C 	0.77429 0.05978 0.11324 0.02500
C 	C 	0.81435 0.08899 0.99284 0.02400
C 	C 	0.82531 0.01386 0.99061 0.10900
C 	C 	0.75531 0.07500 0.15363 0.08200
C 	C 	0.84782 0.10173 0.99379 -0.03500
C 	C 	0.86146 0.11847 0.95206 0.02800
C 	C 	0.84124 0.12352 0.90995 -0.07200
C 	C 	0.80709 0.11295 0.91028 0.02200
C 	C 	0.79369 0.09548 0.95161 -0.03400
C 	C 	0.86829 0.09709 0.03750 0.10600
C 	C 	0.78581 0.12003 0.86800 0.07500
C 	C 	0.89654 0.12959 0.95187 0.10200
C 	C 	0.75884 0.08369 0.95156 0.10600
C 	C 	0.77674 0.11871 0.07359 0.10600
C 	C 	0.80879 0.97116 0.07386 0.09200
N 	N 	0.92451 0.13845 0.95167 -0.09100
N 	N 	0.88459 0.09336 0.07242 -0.10000
N 	N 	0.76887 0.12569 0.83426 -0.10500
N 	N 	0.73103 0.07427 0.95158 -0.10000
N 	N 	0.83861 0.00140 0.95693 -0.10100
N 	N 	0.81612 0.94153 0.07444 -0.09200
N 	N 	0.74016 0.08712 0.18586 -0.10300
N 	N 	0.77073 0.14866 0.07368 -0.09800
C 	C 	0.66468 0.59737 0.99113 -0.03500
C 	C 	0.69510 0.57872 0.98354 0.02400
C 	C 	0.71119 0.57997 0.93736 -0.03500
C 	C 	0.69567 0.59778 0.89786 0.02400
C 	C 	0.66422 0.61457 0.90473 -0.07200
C 	C 	0.64926 0.61531 0.95174 0.02800
C 	C 	0.70892 0.55590 0.02338 0.02300
C 	C 	0.74347 0.56256 0.93044 0.10600
C 	C 	0.61775 0.63413 0.95936 0.09400
C 	C 	0.69868 0.52028 0.02688 -0.03600
C 	C 	0.70600 0.50071 0.06959 0.02500
C 	C 	0.72352 0.51682 0.10875 -0.07200
C 	C 	0.73696 0.55111 0.10294 0.02700
C 	C 	0.72960 0.57070 0.06020 -0.03600
C 	C 	0.67989 0.50413 0.98702 0.10600
C 	C 	0.75840 0.56610 0.14078 0.09200
C 	C 	0.69466 0.46435 0.07391 0.08700
C 	C 	0.74267 0.60628 0.05445 0.10600
C 	C 	0.64904 0.59753 0.03932 0.10500
C 	C 	0.71195 0.59877 0.85014 0.08000
N 	N 	0.68563 0.43535 0.07738 -0.09700
N 	N 	0.66489 0.49130 0.95518 -0.10300
N 	N 	0.77551 0.57805 0.17100 -0.10100
N 	N 	0.75307 0.63469 0.04981 -0.10200
N 	N 	0.76924 0.54864 0.92498 -0.10100
N 	N 	0.72491 0.59958 0.81205 -0.10600
N 	N 	0.59264 0.64919 0.96540 -0.09600
N 	N 	0.63659 0.59763 0.07779 -0.10300
C 	C 	0.64794 0.53999 0.46055 -0.03600
C 	C 	0.67396 0.54599 0.49495 0.02400
C 	C 	0.70721 0.53499 0.48397 -0.03500
C 	C 	0.71431 0.51947 0.43804 0.02400
C 	C 	0.68752 0.50876 0.40718 -0.07000
C 	C 	0.65400 0.51847 0.41932 0.02400
C 	C 	0.66564 0.56135 0.54409 0.02400
C 	C 	0.73374 0.53855 0.52032 0.10800
C 	C 	0.62569 0.50447 0.39161 0.09900
C 	C 	0.64443 0.54256 0.57655 -0.03600
C 	C 	0.62842 0.56045 0.61557 0.02300
C 	C 	0.63790 0.59577 0.62672 -0.07100
C 	C 	0.66493 0.61127 0.60066 0.02600
C 	C 	0.67605 0.59593 0.55643 -0.03400
C 	C 	0.63867 0.50506 0.56915 0.10500
C 	C 	0.68285 0.64125 0.62121 0.08300
C 	C 	0.60203 0.54272 0.64309 0.10000
C 	C 	0.69667 0.61628 0.52273 0.10700
C 	C 	0.61492 0.55575 0.46784 0.10700
C 	C 	0.74894 0.51680 0.42112 0.09200
N 	N 	0.58102 0.52838 0.66494 -0.09600
N 	N 	0.63409 0.47514 0.56319 -0.10100
N 	N 	0.69722 0.66512 0.63766 -0.10700
N 	N 	0.71311 0.63256 0.49581 -0.10300
N 	N 	0.75492 0.54139 0.54936 -0.10200
N 	N 	0.77656 0.51473 0.40753 -0.10200
N 	N 	0.60309 0.49328 0.36957 -0.09500
N 	N 	0.58859 0.56835 0.47372 -0.09900
C 	C 	0.83885 0.31269 0.95969 -0.03700
C 	C 	0.80394 0.31011 0.96945 0.02400
C 	C 	0.78265 0.29219 0.93616 -0.03700
C 	C 	0.79656 0.27491 0.89492 0.02500
C 	C 	0.83139 0.27833 0.88442 -0.08000
C 	C 	0.85222 0.29839 0.91605 0.02500
C 	C 	0.78961 0.32670 0.01470 0.02200
C 	C 	0.74646 0.29157 0.94437 0.10600
C 	C 	0.88716 0.30513 0.90299 0.08500
C 	C 	0.78597 0.36373 0.01737 -0.03600
C 	C 	0.77880 0.38002 0.06274 0.02300
C 	C 	0.77128 0.35904 0.10439 -0.06900
C 	C 	0.77093 0.32176 0.09998 0.02400
C 	C 	0.78184 0.30567 0.05601 -0.03500
C 	C 	0.79010 0.38506 0.97349 0.10500
C 	C 	0.75822 0.30008 0.13986 0.09500
C 	C 	0.78107 0.41818 0.06709 0.08900
C 	C 	0.78560 0.26756 0.05349 0.10600
C 	C 	0.86102 0.32983 0.99481 0.10600
C 	C 	0.77540 0.25238 0.86470 0.08800
N 	N 	0.78301 0.44863 0.07030 -0.09800
N 	N 	0.79341 0.40205 0.93845 -0.10400
N 	N 	0.74806 0.28276 0.17166 -0.09800
N 	N 	0.78862 0.23716 0.05141 -0.09900
N 	N 	0.71759 0.29109 0.95097 -0.10100
N 	N 	0.75852 0.23438 0.84062 -0.10300
N 	N 	0.91503 0.31052 0.89259 -0.10200
N 	N 	0.87867 0.34351 0.02287 -0.10500
C 	C 	0.83783 0.32685 0.41762 -0.03700
C 	C 	0.83424 0.33556 0.46765 0.02400
C 	C 	0.81725 0.36680 0.48126 -0.03800
C 	C 	0.80108 0.38756 0.44526 0.02800
C 	C 	0.80240 0.37741 0.39530 -0.08200
C 	C 	0.82151 0.34735 0.38144 0.02600
C 	C 	0.84496 0.30989 0.50621 0.02200
C 	C 	0.81586 0.37715 0.53254 0.10400
C 	C 	0.82293 0.33638 0.33040 0.05500
C 	C 	0.87727 0.31252 0.52767 -0.03600
C 	C 	0.88556 0.29137 0.56862 0.02500
C 	C 	0.86111 0.26847 0.58900 -0.07200
C 	C 	0.82998 0.26351 0.56464 0.02000
C 	C 	0.82197 0.28417 0.52318 -0.03500
C 	C 	0.90174 0.33729 0.50802 0.10500
C 	C 	0.80580 0.23789 0.58301 0.08100
C 	C 	0.91939 0.29249 0.58900 0.09700
C 	C 	0.78980 0.27953 0.49851 0.10400
C 	C 	0.85771 0.29627 0.40352 0.10700
C 	C 	0.78238 0.41881 0.45983 0.09600
N 	N 	0.94639 0.29336 0.60526 -0.09600
N 	N 	0.92124 0.35708 0.49229 -0.10200
N 	N 	0.78644 0.21748 0.59755 -0.09900
N 	N 	0.76414 0.27587 0.47878 -0.10200
N 	N 	0.81477 0.38535 0.57348 -0.10700
N 	N 	0.76738 0.44361 0.47182 -0.09400
N 	N 	0.82413 0.32750 0.28974 -0.13000
N 	N 	0.87357 0.27186 0.39233 -0.10100
C 	C 	0.02168 0.14479 0.71434 -0.03500
C 	C 	0.03368 0.11669 0.74368 0.02300
C 	C 	0.01172 0.09964 0.77689 -0.03600
C 	C 	0.97801 0.11107 0.78146 0.02500
C 	C 	0.96603 0.13928 0.75230 -0.07400
C 	C 	0.98773 0.15576 0.71817 0.02400
C 	C 	0.06932 0.10435 0.73874 0.02300
C 	C 	0.02389 0.07029 0.80630 0.10600
C 	C 	0.97515 0.18406 0.68718 0.08000
C 	C 	0.09428 0.11676 0.77150 -0.03500
C 	C 	0.12736 0.10302 0.76925 0.02300
C 	C 	0.13571 0.07752 0.73343 -0.07400
C 	C 	0.11089 0.06565 0.70000 0.02500
C 	C 	0.07771 0.07897 0.70280 -0.03600
C 	C 	0.08583 0.14358 0.80754 0.10600
C 	C 	0.11937 0.03930 0.66325 0.09100
C 	C 	0.15283 0.11518 0.80366 0.08200
C 	C 	0.05208 0.06639 0.66898 0.10600
C 	C 	0.04434 0.16244 0.68041 0.10600
C 	C 	0.95557 0.09374 0.81607 0.08800
N 	N 	0.17315 0.12486 0.83112 -0.10100
N 	N 	0.07904 0.16498 0.83629 -0.10000
N 	N 	0.12609 0.01830 0.63390 -0.09400
N 	N 	0.03159 0.05638 0.64202 -0.10100
N 	N 	0.03364 0.04688 0.82973 -0.10100
N 	N 	0.93773 0.07990 0.84373 -0.09500
N 	N 	0.96511 0.20661 0.66242 -0.10200
N 	N 	0.06245 0.17649 0.65334 -0.10000
C 	C 	0.50085 0.37781 0.28595 -0.03500
C 	C 	0.52305 0.35831 0.25577 0.02300
C 	C 	0.51113 0.32815 0.23072 -0.03500
C 	C 	0.47731 0.31734 0.23649 0.02400
C 	C 	0.45402 0.33954 0.26105 -0.07200
C 	C 	0.46606 0.36978 0.28636 0.02300
C 	C 	0.55877 0.37030 0.24922 0.02400
C 	C 	0.53342 0.30875 0.19814 0.10700
C 	C 	0.44271 0.39349 0.31089 0.08900
C 	C 	0.58539 0.35200 0.27244 -0.03500
C 	C 	0.61868 0.36485 0.26875 0.02500
C 	C 	0.62478 0.39863 0.24836 -0.07200
C 	C 	0.59835 0.41617 0.22303 0.02400
C 	C 	0.56581 0.40098 0.22154 -0.03500
C 	C 	0.57839 0.32061 0.30132 0.10700
C 	C 	0.60417 0.45020 0.19993 0.08900
C 	C 	0.64672 0.34297 0.28461 0.08600
C 	C 	0.53943 0.41715 0.19219 0.10600
C 	C 	0.51381 0.40636 0.31615 0.10600
C 	C 	0.46680 0.28288 0.21872 0.08500
N 	N 	0.66909 0.32549 0.29726 -0.10500
N 	N 	0.57277 0.29557 0.32435 -0.10100
N 	N 	0.60875 0.47736 0.18147 -0.10700
N 	N 	0.51834 0.43003 0.16880 -0.10100
N 	N 	0.55124 0.29328 0.17217 -0.10100
N 	N 	0.45844 0.25539 0.20453 -0.10700
N 	N 	0.42412 0.41246 0.33048 -0.10500
N 	N 	0.52420 0.42913 0.34020 -0.09900
C 	C 	0.39117 0.16237 0.47503 -0.03600
C 	C 	0.36088 0.16136 0.50229 0.02300
C 	C 	0.33331 0.18270 0.48815 -0.03500
C 	C 	0.33556 0.20404 0.44587 0.02000
C 	C 	0.36526 0.20378 0.41720 -0.07300
C 	C 	0.39341 0.18365 0.43254 0.02600
C 	C 	0.35750 0.13720 0.54536 0.02400
C 	C 	0.30245 0.18232 0.51692 0.10400
C 	C 	0.42484 0.18545 0.40528 0.09500
C 	C 	0.36181 0.15055 0.59331 -0.03700
C 	C 	0.34761 0.13238 0.63359 0.02400
C 	C 	0.32965 0.10063 0.62567 -0.08000
C 	C 	0.33085 0.08435 0.57907 0.02900
C 	C 	0.34453 0.10281 0.53871 -0.03700
C 	C 	0.37961 0.18360 0.60080 0.10600
C 	C 	0.31738 0.04899 0.57257 0.09300
C 	C 	0.35010 0.14713 0.68263 0.06800
C 	C 	0.34409 0.08713 0.49012 0.10500
C 	C 	0.41991 0.14144 0.49067 0.10600
C 	C 	0.30710 0.22586 0.43137 0.07800
N 	N 	0.35208 0.15891 0.72176 -0.11900
N 	N 	0.39382 0.21000 0.60672 -0.10100
N 	N 	0.30663 0.02077 0.56738 -0.09600
N 	N 	0.34376 0.07465 0.45130 -0.10400
N 	N 	0.27787 0.18197 0.53992 -0.10200
N 	N 	0.28440 0.24327 0.41984 -0.10300
N 	N 	0.44992 0.18689 0.38353 -0.09700
N 	N 	0.44283 0.12473 0.50319 -0.10100
C 	C 	0.32592 0.17494 0.05673 -0.03700
C 	C 	0.29085 0.17214 0.04846 0.02400
C 	C 	0.26795 0.18687 0.08253 -0.03700
C 	C 	0.28012 0.20654 0.12288 0.02500
C 	C 	0.31527 0.20955 0.13096 -0.08100
C 	C 	0.33805 0.19239 0.09890 0.02500
C 	C 	0.27810 0.15418 0.00321 0.02200
C 	C 	0.23193 0.18185 0.07590 0.10600
C 	C 	0.37389 0.19189 0.11003 0.08100
C 	C 	0.27816 0.11695 0.00029 -0.03500
C 	C 	0.27311 0.10013 0.95462 0.02200
C 	C 	0.26591 0.12057 0.91238 -0.06800
C 	C 	0.26115 0.15745 0.91707 0.02400
C 	C 	0.26859 0.17440 0.96190 -0.03400
C 	C 	0.28404 0.09605 0.04413 0.10400
C 	C 	0.24759 0.17770 0.87633 0.09600
C 	C 	0.27642 0.06201 0.95086 0.09100
C 	C 	0.26716 0.21265 0.96531 0.10600
C 	C 	0.34950 0.16014 0.02149 0.10400
C 	C 	0.25655 0.22462 0.15502 0.08900
N 	N 	0.27907 0.03160 0.94797 -0.09700
N 	N 	0.28874 0.07940 0.07915 -0.10300
N 	N 	0.23675 0.19386 0.84383 -0.10000
N 	N 	0.26602 0.24316 0.96810 -0.10000
N 	N 	0.20319 0.17784 0.07056 -0.10000
N 	N 	0.23773 0.23906 0.18065 -0.10100
N 	N 	0.40247 0.19148 0.11893 -0.10100
N 	N 	0.36827 0.14831 0.99334 -0.10400
C 	C 	0.37469 0.62770 0.74392 -0.03500
C 	C 	0.40099 0.61591 0.77485 0.02300
C 	C 	0.39442 0.59008 0.81099 -0.03600
C 	C 	0.36193 0.57518 0.81509 0.02400
C 	C 	0.33600 0.58584 0.78270 -0.07400
C 	C 	0.34237 0.61220 0.74720 0.02300
C 	C 	0.43628 0.62843 0.76661 0.02300
C 	C 	0.42129 0.57851 0.84347 0.10500
C 	C 	0.31574 0.62321 0.71393 0.08200
C 	C 	0.44981 0.65580 0.79586 -0.03600
C 	C 	0.48406 0.66546 0.79085 0.02400
C 	C 	0.50457 0.64826 0.75582 -0.07500
C 	C 	0.49055 0.62202 0.72502 0.02400
C 	C 	0.45659 0.61181 0.73089 -0.03600
C 	C 	0.42849 0.67388 0.83116 0.10600
C 	C 	0.51109 0.60549 0.68732 0.09100
C 	C 	0.49808 0.69338 0.82117 0.08400
C 	C 	0.44257 0.58388 0.70055 0.10500
C 	C 	0.38104 0.65560 0.70855 0.10600
C 	C 	0.35534 0.54834 0.85200 0.09000
N 	N 	0.50931 0.71566 0.84534 -0.10100
N 	N 	0.41144 0.68827 0.85932 -0.10100
N 	N 	0.52739 0.59235 0.65712 -0.09000
N 	N 	0.43135 0.56162 0.67638 -0.10200
N 	N 	0.44275 0.56932 0.86935 -0.10200
N 	N 	0.35012 0.52696 0.88145 -0.09500
N 	N 	0.29453 0.63197 0.68733 -0.10200
N 	N 	0.38614 0.67786 0.68033 -0.10100
C 	C 	0.28008 0.45304 0.55149 -0.03500
C 	C 	0.26980 0.41734 0.54963 0.02300
C 	C 	0.25025 0.40302 0.58814 -0.03600
C 	C 	0.24197 0.42403 0.62924 0.02600
C 	C 	0.25365 0.45927 0.63216 -0.07100
C 	C 	0.27190 0.47403 0.59262 0.02400
C 	C 	0.27986 0.39471 0.50708 0.02300
C 	C 	0.23880 0.36664 0.58546 0.10600
C 	C 	0.28261 0.51070 0.59457 0.08800
C 	C 	0.31028 0.37531 0.50874 -0.03500
C 	C 	0.32182 0.35739 0.46649 0.02300
C 	C 	0.30315 0.35929 0.42241 -0.07000
C 	C 	0.27135 0.37618 0.42201 0.02600
C 	C 	0.25980 0.39405 0.46427 -0.03500
C 	C 	0.32992 0.37429 0.55369 0.10500
C 	C 	0.25039 0.37477 0.37834 0.09100
C 	C 	0.35310 0.33746 0.46812 0.09000
C 	C 	0.22753 0.41218 0.46358 0.10600
C 	C 	0.29930 0.46804 0.51120 0.10600
C 	C 	0.22087 0.40968 0.66798 0.09300
N 	N 	0.37804 0.32153 0.46939 -0.09600
N 	N 	0.34556 0.37351 0.58959 -0.10200
N 	N 	0.23368 0.37364 0.34349 -0.09800
N 	N 	0.20178 0.42667 0.46309 -0.10100
N 	N 	0.22967 0.33761 0.58326 -0.10100
N 	N 	0.20404 0.39824 0.69889 -0.09900
N 	N 	0.29112 0.53997 0.59616 -0.09600
N 	N 	0.31463 0.47996 0.47901 -0.10100
C 	C 	0.32066 0.40421 0.04686 -0.03600
C 	C 	0.28845 0.41936 0.05382 0.02400
C 	C 	0.27061 0.41322 0.09785 -0.03500
C 	C 	0.28525 0.39250 0.13529 0.02200
C 	C 	0.31779 0.37802 0.12877 -0.07100
C 	C 	0.33545 0.38381 0.08445 0.02700
C 	C 	0.27382 0.44275 0.01517 0.02300
C 	C 	0.23729 0.42838 0.10464 0.10600
C 	C 	0.36915 0.36946 0.07801 0.09900
C 	C 	0.25438 0.42806 0.97685 -0.03300
C 	C 	0.24581 0.44888 0.93574 0.02200
C 	C 	0.25695 0.48424 0.93281 -0.06800
C 	C 	0.27375 0.49977 0.97316 0.02900
C 	C 	0.28193 0.47905 0.01451 -0.03600
C 	C 	0.24388 0.39137 0.97933 0.10600
C 	C 	0.28363 0.53669 0.97135 0.10100
C 	C 	0.22582 0.43391 0.89623 0.07900
C 	C 	0.29939 0.49481 0.05592 0.10600
C 	C 	0.33864 0.40991 0.00110 0.10600
C 	C 	0.26683 0.38593 0.18046 0.07600
N 	N 	0.20988 0.42199 0.86467 -0.10500
N 	N 	0.23552 0.36208 0.98136 -0.09900
N 	N 	0.29152 0.56614 0.96987 -0.09300
N 	N 	0.31333 0.50734 0.08899 -0.10200
N 	N 	0.21071 0.44050 0.11000 -0.10100
N 	N 	0.25217 0.38068 0.21651 -0.10400
N 	N 	0.39602 0.35800 0.07291 -0.09300
N 	N 	0.35293 0.41449 0.96456 -0.10100
C 	C 	0.97985 0.88939 0.22908 -0.03600
C 	C 	0.95509 0.86974 0.25447 0.02300
C 	C 	0.96398 0.83757 0.27730 -0.03500
C 	C 	0.99731 0.82475 0.27370 0.02400
C 	C 	0.02287 0.84622 0.25300 -0.07200
C 	C 	0.01397 0.87873 0.23060 0.02400
C 	C 	0.91964 0.88318 0.25751 0.02300
C 	C 	0.93896 0.81799 0.30513 0.10700
C 	C 	0.03989 0.90199 0.21124 0.08700
C 	C 	0.89408 0.86774 0.22852 -0.03500
C 	C 	0.86085 0.88093 0.23074 0.02400
C 	C 	0.85400 0.91263 0.25657 -0.07100
C 	C 	0.87961 0.92785 0.28621 0.02300
C 	C 	0.91183 0.91198 0.28844 -0.03500
C 	C 	0.90213 0.83871 0.19571 0.10600
C 	C 	0.87336 0.96041 0.31289 0.09100
C 	C 	0.83358 0.86126 0.20793 0.08500
C 	C 	0.93709 0.92547 0.32218 0.10600
C 	C 	0.97020 0.92069 0.20166 0.10600
C 	C 	0.00505 0.78911 0.28989 0.08600
N 	N 	0.81188 0.84550 0.18970 -0.10900
N 	N 	0.90858 0.81554 0.16956 -0.10100
N 	N 	0.86844 0.98639 0.33423 -0.10500
N 	N 	0.95727 0.93621 0.34907 -0.10100
N 	N 	0.91897 0.80238 0.32732 -0.10000
N 	N 	0.01120 0.76066 0.30281 -0.10700
N 	N 	0.06054 0.92059 0.19580 -0.10800
N 	N 	0.96246 0.94567 0.17982 -0.10100
C 	C 	0.21860 0.89198 0.05396 -0.03500
C 	C 	0.19897 0.89208 0.01072 0.02300
C 	C 	0.16900 0.87196 0.00849 -0.03600
C 	C 	0.15726 0.85415 0.05070 0.02300
C 	C 	0.17528 0.85685 0.09527 -0.07000
C 	C 	0.20690 0.87412 0.09612 0.02600
C 	C 	0.20883 0.91504 0.96845 0.02300
C 	C 	0.15001 0.87013 0.96301 0.10600
C 	C 	0.22756 0.87299 0.14010 0.09200
C 	C 	0.22921 0.90138 0.93041 -0.03500
C 	C 	0.23708 0.92258 0.88933 0.02500
C 	C 	0.22407 0.95728 0.88590 -0.06900
C 	C 	0.20505 0.97146 0.92507 0.01900
C 	C 	0.19737 0.95033 0.96625 -0.03300
C 	C 	0.24193 0.86549 0.93352 0.10600
C 	C 	0.19295 0.00765 0.92262 0.09200
C 	C 	0.25909 0.90900 0.85113 0.09300
C 	C 	0.17744 0.96474 0.00623 0.10300
C 	C 	0.25054 0.91072 0.05519 0.10600
C 	C 	0.12643 0.83349 0.04848 0.09000
N 	N 	0.27665 0.89817 0.82065 -0.09900
N 	N 	0.25205 0.83684 0.93606 -0.10100
N 	N 	0.18333 0.03652 0.92065 -0.09600
N 	N 	0.16154 0.97619 0.03817 -0.10200
N 	N 	0.13488 0.86871 0.92668 -0.10300
N 	N 	0.10185 0.81697 0.04672 -0.09600
N 	N 	0.24405 0.87208 0.17519 -0.09700
N 	N 	0.27603 0.92569 0.05611 -0.10100
C 	C 	0.20659 0.90895 0.42018 -0.03500
C 	C 	0.18875 0.91567 0.46405 0.02400
C 	C 	0.15628 0.90114 0.47101 -0.03600
C 	C 	0.14109 0.88113 0.43335 0.02700
C 	C 	0.15864 0.87503 0.38901 -0.07100
C 	C 	0.19159 0.88852 0.38274 0.02200
C 	C 	0.20354 0.93924 0.50233 0.02300
C 	C 	0.13844 0.90712 0.51680 0.10600
C 	C 	0.21005 0.88125 0.33782 0.07600
C 	C 	0.19555 0.97558 0.50255 -0.03300
C 	C 	0.20343 0.99643 0.54388 0.02500
C 	C 	0.21997 0.98104 0.58457 -0.07100
C 	C 	0.23127 0.94572 0.58190 0.02300
C 	C 	0.22285 0.92473 0.54090 -0.03400
C 	C 	0.17845 0.99121 0.46072 0.10200
C 	C 	0.25124 0.93097 0.62159 0.07800
C 	C 	0.19337 0.03331 0.54539 0.10500
C 	C 	0.23333 0.88801 0.53883 0.10600
C 	C 	0.24025 0.92329 0.41352 0.10600
C 	C 	0.10707 0.86762 0.43968 0.09900
N 	N 	0.18533 0.06272 0.54662 -0.09400
N 	N 	0.16481 0.00364 0.42732 -0.09800
N 	N 	0.26717 0.91922 0.65329 -0.10500
N 	N 	0.24167 0.85871 0.53712 -0.10000
N 	N 	0.12424 0.91194 0.55337 -0.10100
N 	N 	0.07993 0.85684 0.44470 -0.09300
N 	N 	0.22474 0.87543 0.30196 -0.10500
N 	N 	0.26711 0.93475 0.40826 -0.10100
C 	C 	0.14479 0.67378 0.45944 -0.03700
C 	C 	0.17982 0.67166 0.46847 0.02400
C 	C 	0.20280 0.68682 0.43493 -0.03700
C 	C 	0.19073 0.70618 0.39424 0.02500
C 	C 	0.15563 0.70857 0.38544 -0.08100
C 	C 	0.13278 0.69115 0.41713 0.02500
C 	C 	0.19239 0.65408 0.51408 0.02300
C 	C 	0.23884 0.68261 0.44248 0.10600
C 	C 	0.09702 0.69037 0.40552 0.08100
C 	C 	0.19356 0.61686 0.51688 -0.03500
C 	C 	0.19880 0.60014 0.56256 0.02200
C 	C 	0.20476 0.62075 0.60505 -0.06800
C 	C 	0.20803 0.65783 0.60071 0.02400
C 	C 	0.20063 0.67457 0.55571 -0.03500
C 	C 	0.18877 0.59585 0.47285 0.10400
C 	C 	0.21993 0.67858 0.64206 0.09600
C 	C 	0.19700 0.56190 0.56606 0.09000
C 	C 	0.20085 0.71285 0.55240 0.10600
C 	C 	0.12112 0.65835 0.49403 0.10400
C 	C 	0.21432 0.72457 0.36246 0.08900
N 	N 	0.19555 0.53139 0.56876 -0.09800
N 	N 	0.18494 0.57912 0.43769 -0.10400
N 	N 	0.22943 0.69514 0.67504 -0.10000
N 	N 	0.20102 0.74339 0.54969 -0.10000
N 	N 	0.26758 0.67924 0.44855 -0.10000
N 	N 	0.23314 0.73926 0.33713 -0.10100
N 	N 	0.06850 0.68976 0.39625 -0.10200
N 	N 	0.10228 0.64603 0.52167 -0.10500
C 	C 	0.10909 0.64911 0.92281 -0.03700
C 	C 	0.11387 0.63652 0.97106 0.02500
C 	C 	0.12732 0.60242 0.97846 -0.03700
C 	C 	0.14125 0.58371 0.93851 0.02800
C 	C 	0.14200 0.59939 0.89149 -0.08000
C 	C 	0.12336 0.63061 0.88287 0.02400
C 	C 	0.11069 0.66132 0.01345 0.02200
C 	C 	0.12805 0.58735 0.02741 0.10400
C 	C 	0.12030 0.64454 0.83345 0.06700
C 	C 	0.08050 0.66279 0.04090 -0.03600
C 	C 	0.07851 0.68455 0.08297 0.02500
C 	C 	0.10692 0.70446 0.09791 -0.07300
C 	C 	0.13648 0.70431 0.06893 0.02100
C 	C 	0.13838 0.68272 0.02686 -0.03600
C 	C 	0.05161 0.64184 0.02595 0.10500
C 	C 	0.16523 0.72588 0.08297 0.07800
C 	C 	0.04708 0.68711 0.11010 0.09500
C 	C 	0.16901 0.68210 0.99760 0.10500
C 	C 	0.09077 0.68177 0.91462 0.10600
C 	C 	0.15562 0.54883 0.94587 0.09200
N 	N 	0.02200 0.68917 0.13175 -0.09800
N 	N 	0.02857 0.62509 0.01398 -0.10200
N 	N 	0.18818 0.74306 0.09411 -0.10200
N 	N 	0.19341 0.68156 0.97420 -0.10200
N 	N 	0.12862 0.57535 0.06652 -0.10500
N 	N 	0.16711 0.52100 0.95174 -0.09700
N 	N 	0.11786 0.65567 0.79399 -0.11900
N 	N 	0.07615 0.70785 0.90815 -0.10100
