data_crystal

_cell_length_a 22.31838
_cell_length_b 22.07292
_cell_length_c 51.14786
_cell_angle_alpha 89.88836
_cell_angle_beta  89.89105
_cell_angle_gamma 119.77653

_symmetry_space_group_name_	'P 1'
_symmetry_space_group_name_H-M	'P 1'

loop_
_symmetry_equiv_pos_as_xyz
  x,y,z

loop_
_atom_site_label
_atom_site_type_symbol
_atom_site_fract_x
_atom_site_fract_y
_atom_site_fract_z
_atom_site_charge
C 	C 	0.85997 0.43043 0.92920 0.30700
C 	C 	0.57142 0.32795 0.89012 0.30600
C 	C 	0.76238 0.51764 0.92107 0.31000
C 	C 	0.66199 0.22704 0.89147 0.28800
C 	C 	0.60245 0.37119 0.97690 0.32100
C 	C 	0.68479 0.25571 0.97724 0.29600
Ni	Ni	0.72453 0.38195 0.89668 1.11600
Ni	Ni	0.60371 0.27499 0.93626 1.12500
Ni	Ni	0.73875 0.40427 0.95958 1.12000
O 	O 	0.83114 0.43174 0.90639 -0.35700
O 	O 	0.82241 0.39761 0.94987 -0.39300
O 	O 	0.57611 0.30571 0.96948 -0.37400
O 	O 	0.62840 0.34061 0.87781 -0.35000
O 	O 	0.57189 0.33141 0.91555 -0.37500
O 	O 	0.70522 0.32114 0.98461 -0.38400
O 	O 	0.71852 0.47001 0.90524 -0.36700
O 	O 	0.78677 0.50025 0.94148 -0.37900
O 	O 	0.63677 0.22399 0.95908 -0.37700
O 	O 	0.71851 0.28814 0.88757 -0.36500
O 	O 	0.60603 0.22206 0.90323 -0.36000
O 	O 	0.65967 0.42004 0.96653 -0.38900
O 	O 	0.69719 0.34494 0.93053 -0.71500
H 	H 	0.71935 0.31600 0.93149 0.16000
C 	C 	0.75106 0.44865 0.52212 0.30100
C 	C 	0.60205 0.15945 0.56041 0.32400
C 	C 	0.57278 0.30405 0.50848 0.32000
C 	C 	0.77818 0.28620 0.57928 0.29800
C 	C 	0.51681 0.27995 0.59293 0.31300
C 	C 	0.69982 0.43599 0.60625 0.29000
Ni	Ni	0.69095 0.29504 0.53311 1.11600
Ni	Ni	0.65038 0.28457 0.59452 1.12200
Ni	Ni	0.62336 0.38370 0.55688 1.12200
O 	O 	0.76520 0.39686 0.52385 -0.36300
O 	O 	0.68742 0.43782 0.52616 -0.37900
O 	O 	0.54778 0.24262 0.59281 -0.39000
O 	O 	0.60699 0.19674 0.53973 -0.37700
O 	O 	0.63590 0.19026 0.58187 -0.38100
O 	O 	0.68517 0.45402 0.58331 -0.37900
O 	O 	0.63296 0.30866 0.50419 -0.37200
O 	O 	0.55496 0.31070 0.53227 -0.38700
O 	O 	0.66534 0.37030 0.61507 -0.36700
O 	O 	0.75906 0.27259 0.55422 -0.35800
O 	O 	0.75135 0.31354 0.59534 -0.37500
O 	O 	0.54920 0.34524 0.58478 -0.37600
O 	O 	0.67089 0.33330 0.56226 -0.72000
H 	H 	0.71745 0.37217 0.56610 0.16400
C 	C 	0.94329 0.08113 0.71469 0.30900
C 	C 	0.91360 0.86635 0.79113 0.30800
C 	C 	0.91085 0.05633 0.78683 0.33000
C 	C 	0.93433 0.86322 0.71504 0.29300
C 	C 	0.11594 0.06030 0.79526 0.31300
C 	C 	0.13132 0.05878 0.72252 0.30000
Ni	Ni	0.89463 0.94833 0.74907 1.11600
Ni	Ni	0.03689 0.94508 0.75747 1.11600
Ni	Ni	0.03996 0.09137 0.75684 1.12300
O 	O 	0.89201 0.02995 0.72847 -0.35100
O 	O 	0.00857 0.11159 0.72260 -0.38000
O 	O 	0.11678 0.01295 0.77986 -0.36300
O 	O 	0.87782 0.86075 0.77005 -0.35900
O 	O 	0.98137 0.90445 0.79083 -0.36000
O 	O 	0.12816 0.10261 0.73982 -0.36500
O 	O 	0.89446 0.99115 0.78482 -0.38700
O 	O 	0.96329 0.10471 0.77336 -0.35400
O 	O 	0.09980 0.99022 0.72679 -0.38500
O 	O 	0.89657 0.89449 0.71607 -0.35800
O 	O 	0.96761 0.86059 0.73621 -0.35500
O 	O 	0.06803 0.07775 0.79256 -0.37700
O 	O 	0.99084 0.99532 0.74807 -0.71700
H 	H 	0.99753 0.99875 0.72896 0.16100
C 	C 	0.45663 0.76569 0.39832 0.29400
C 	C 	0.18823 0.51351 0.40342 0.31300
C 	C 	0.28563 0.73966 0.38196 0.31200
C 	C 	0.35507 0.53692 0.42993 0.29800
C 	C 	0.19796 0.66926 0.45927 0.31900
C 	C 	0.36459 0.70887 0.48693 0.30200
Ni	Ni	0.32605 0.63096 0.39390 1.12100
Ni	Ni	0.26411 0.58549 0.45239 1.12100
Ni	Ni	0.33794 0.74648 0.43516 1.12200
O 	O 	0.43069 0.69757 0.39678 -0.37200
O 	O 	0.42275 0.79403 0.41027 -0.36300
O 	O 	0.19035 0.61118 0.44944 -0.38500
O 	O 	0.21999 0.57486 0.39254 -0.36800
O 	O 	0.20686 0.50492 0.42697 -0.36400
O 	O 	0.39355 0.74896 0.46613 -0.38800
O 	O 	0.32216 0.71156 0.37382 -0.35900
O 	O 	0.27275 0.74070 0.40683 -0.38300
O 	O 	0.30842 0.64512 0.48525 -0.38200
O 	O 	0.33214 0.54341 0.40668 -0.36000
O 	O 	0.33136 0.54930 0.45196 -0.37500
O 	O 	0.25940 0.72581 0.46032 -0.38600
O 	O 	0.32471 0.65609 0.42864 -0.71800
H 	H 	0.36909 0.66255 0.43504 0.16400
C 	C 	0.35234 0.77900 0.12068 0.29200
C 	C 	0.29715 0.51102 0.07953 0.31000
C 	C 	0.41211 0.66399 0.14434 0.31300
C 	C 	0.25300 0.63409 0.04639 0.29700
C 	C 	0.51279 0.65762 0.07594 0.32100
C 	C 	0.48632 0.80022 0.04334 0.30000
Ni	Ni	0.30396 0.63405 0.10319 1.11900
Ni	Ni	0.38915 0.64330 0.05068 1.12300
Ni	Ni	0.46456 0.74977 0.09761 1.12500
O 	O 	0.30329 0.72613 0.10771 -0.37200
O 	O 	0.41776 0.79124 0.12132 -0.36000
O 	O 	0.45326 0.61389 0.06544 -0.39000
O 	O 	0.31809 0.54911 0.10044 -0.37200
O 	O 	0.31174 0.54178 0.05646 -0.36500
O 	O 	0.48099 0.81553 0.06802 -0.38200
O 	O 	0.34915 0.65263 0.14057 -0.35500
O 	O 	0.45432 0.67957 0.12473 -0.38600
O 	O 	0.46714 0.73510 0.03559 -0.37800
O 	O 	0.23867 0.60371 0.07003 -0.35800
O 	O 	0.31477 0.65848 0.03538 -0.38000
O 	O 	0.52989 0.72317 0.08020 -0.38200
O 	O 	0.38006 0.68668 0.08151 -0.71900
H 	H 	0.36798 0.72004 0.07370 0.16600
C 	C 	0.03032 0.16792 0.26546 0.27400
C 	C 	0.08341 0.96341 0.21479 0.28700
C 	C 	0.04437 0.12718 0.19110 0.28500
C 	C 	0.06968 0.97177 0.28025 0.27800
C 	C 	0.85224 0.91390 0.20632 0.31100
C 	C 	0.85479 0.96553 0.27436 0.27500
Ni	Ni	0.08714 0.08591 0.24019 1.11500
Ni	Ni	0.95234 0.92911 0.24506 1.12700
Ni	Ni	0.93079 0.05702 0.22965 1.12800
O 	O 	0.08119 0.15358 0.26679 -0.34900
O 	O 	0.99367 0.15544 0.24370 -0.34400
O 	O 	0.90752 0.90876 0.21000 -0.37600
O 	O 	0.09326 0.02601 0.21063 -0.36000
O 	O 	0.03025 0.91706 0.22870 -0.36500
O 	O 	0.87961 0.02856 0.26372 -0.35700
O 	O 	0.08497 0.15186 0.21153 -0.35500
O 	O 	0.97906 0.07950 0.19425 -0.34500
O 	O 	0.86474 0.91605 0.26346 -0.36100
O 	O 	0.11183 0.03320 0.26898 -0.34200
O 	O 	0.00190 0.94327 0.27927 -0.37500
O 	O 	0.85080 0.97038 0.21368 -0.37400
O 	O 	0.99129 0.02708 0.24365 -0.70300
H 	H 	0.98811 0.03501 0.26240 0.16400
C 	C 	0.06092 0.19303 0.12084 -0.02300
C 	C 	0.13293 0.23725 0.11958 0.01600
C 	C 	0.17493 0.22863 0.13806 -0.03100
C 	C 	0.14425 0.18281 0.15938 0.01900
C 	C 	0.07267 0.15398 0.16436 -0.05700
C 	C 	0.03025 0.15686 0.14426 0.00100
C 	C 	0.16196 0.30283 0.10374 0.02600
C 	C 	0.24948 0.26951 0.13593 0.10500
C 	C 	0.95684 0.12868 0.14836 0.12300
C 	C 	0.14908 0.35665 0.11143 -0.04000
C 	C 	0.18510 0.42248 0.09939 0.02800
C 	C 	0.24073 0.43776 0.08228 -0.08100
C 	C 	0.24930 0.38256 0.07273 0.02500
C 	C 	0.20756 0.31426 0.08271 -0.04000
C 	C 	0.10174 0.34554 0.13280 0.10300
C 	C 	0.30294 0.39646 0.05375 0.08600
C 	C 	0.16674 0.47534 0.10553 0.06300
C 	C 	0.21226 0.25628 0.07175 0.10200
C 	C 	0.01841 0.18926 0.09884 0.08100
C 	C 	0.18561 0.16330 0.17537 0.09300
N 	N 	0.15144 0.51687 0.11074 -0.12100
N 	N 	0.06403 0.33668 0.14984 -0.10500
N 	N 	0.34581 0.40753 0.03860 -0.10800
N 	N 	0.21598 0.20993 0.06302 -0.10600
N 	N 	0.30898 0.30220 0.13422 -0.10500
N 	N 	0.21901 0.14803 0.18804 -0.10600
N 	N 	0.89826 0.10652 0.15158 -0.09800
N 	N 	0.98452 0.18633 0.08126 -0.09100
C 	C 	0.68040 0.80425 0.17334 -0.04000
C 	C 	0.64449 0.75531 0.19344 0.02500
C 	C 	0.68148 0.74944 0.21468 -0.03600
C 	C 	0.75343 0.79450 0.21632 0.02800
C 	C 	0.78669 0.85118 0.19873 -0.07600
C 	C 	0.75131 0.85302 0.17623 0.02800
C 	C 	0.56746 0.71293 0.19278 0.02300
C 	C 	0.64534 0.69862 0.23517 0.10900
C 	C 	0.78826 0.90368 0.15579 0.08900
C 	C 	0.53446 0.64479 0.18234 -0.03600
C 	C 	0.46621 0.61576 0.17301 0.02600
C 	C 	0.43662 0.65883 0.17051 -0.07600
C 	C 	0.46124 0.71720 0.18707 0.02000
C 	C 	0.52768 0.74503 0.19811 -0.03600
C 	C 	0.57178 0.60702 0.17967 0.10200
C 	C 	0.42058 0.75074 0.19144 0.09500
C 	C 	0.43024 0.54546 0.16274 0.08900
C 	C 	0.55614 0.80761 0.21390 0.10500
C 	C 	0.64417 0.80488 0.14993 0.10300
C 	C 	0.79348 0.78025 0.23505 0.08100
N 	N 	0.40142 0.48928 0.15450 -0.10100
N 	N 	0.60165 0.57689 0.17752 -0.10600
N 	N 	0.38863 0.77808 0.19522 -0.09900
N 	N 	0.57898 0.85759 0.22653 -0.10100
N 	N 	0.61644 0.65803 0.25153 -0.10000
N 	N 	0.82525 0.76845 0.25000 -0.10700
N 	N 	0.81774 0.94397 0.13942 -0.10000
N 	N 	0.61521 0.80536 0.13125 -0.12900
C 	C 	0.24092 0.94628 0.19906 -0.03000
C 	C 	0.22136 0.91032 0.17510 0.02200
C 	C 	0.15731 0.89357 0.16380 -0.03800
C 	C 	0.11100 0.90862 0.17729 0.02700
C 	C 	0.12959 0.94251 0.20172 -0.06700
C 	C 	0.19541 0.96277 0.21230 0.00300
C 	C 	0.26290 0.88031 0.16394 0.02100
C 	C 	0.13885 0.86007 0.13844 0.10000
C 	C 	0.21695 0.00122 0.23663 0.10500
C 	C 	0.24567 0.81160 0.17043 -0.03400
C 	C 	0.27710 0.77896 0.15712 0.02600
C 	C 	0.33065 0.81711 0.13874 -0.06600
C 	C 	0.35309 0.88845 0.13441 0.01700
C 	C 	0.31817 0.91967 0.14657 -0.02900
C 	C 	0.19443 0.77398 0.19057 0.10500
C 	C 	0.41004 0.92884 0.11664 0.08700
C 	C 	0.25195 0.70520 0.16149 0.09000
C 	C 	0.33834 0.99171 0.14095 0.08300
C 	C 	0.30752 0.96514 0.21033 0.10000
C 	C 	0.04445 0.88970 0.16596 0.07500
N 	N 	0.23107 0.64630 0.16515 -0.10200
N 	N 	0.15359 0.74410 0.20663 -0.10100
N 	N 	0.45548 0.96103 0.10245 -0.11100
N 	N 	0.35438 0.04923 0.13649 -0.09000
N 	N 	0.12420 0.83332 0.11820 -0.11100
N 	N 	0.99133 0.87465 0.15695 -0.08300
N 	N 	0.23537 0.03210 0.25597 -0.09900
N 	N 	0.36066 0.98013 0.21930 -0.10100
C 	C 	0.58093 0.82038 0.34136 -0.03500
C 	C 	0.64038 0.87721 0.35198 0.02100
C 	C 	0.63778 0.90201 0.37716 -0.02900
C 	C 	0.57657 0.86741 0.39221 0.01800
C 	C 	0.51709 0.81018 0.38153 -0.06700
C 	C 	0.51863 0.78961 0.35543 0.02600
C 	C 	0.70448 0.91294 0.33584 0.02100
C 	C 	0.69799 0.96273 0.38754 0.08400
C 	C 	0.45579 0.73754 0.34287 0.08900
C 	C 	0.70693 0.95487 0.31466 -0.03100
C 	C 	0.75087 0.96527 0.29334 0.02500
C 	C 	0.80187 0.94515 0.29525 -0.06300
C 	C 	0.80425 0.90928 0.31784 0.02000
C 	C 	0.75494 0.89246 0.33796 -0.03500
C 	C 	0.66137 0.98411 0.31425 0.08800
C 	C 	0.85631 0.88856 0.32024 0.09500
C 	C 	0.73945 0.99061 0.26870 0.07800
C 	C 	0.75505 0.85272 0.36054 0.10300
C 	C 	0.58412 0.79337 0.31583 0.10500
C 	C 	0.57543 0.88946 0.41881 0.08700
N 	N 	0.73027 0.01072 0.24904 -0.08100
N 	N 	0.62494 0.00736 0.31395 -0.08300
N 	N 	0.89764 0.87174 0.32227 -0.09100
N 	N 	0.75506 0.82101 0.37859 -0.10700
N 	N 	0.74611 0.01120 0.39581 -0.08700
N 	N 	0.57450 0.90702 0.44004 -0.11300
N 	N 	0.40603 0.69607 0.33264 -0.10400
N 	N 	0.58677 0.77197 0.29548 -0.10200
C 	C 	0.02075 0.21762 0.33537 -0.03700
C 	C 	0.03227 0.28582 0.33171 0.01800
C 	C 	0.02247 0.30647 0.30671 -0.03500
C 	C 	0.01770 0.26607 0.28462 0.02100
C 	C 	0.01756 0.20241 0.28798 -0.06900
C 	C 	0.01265 0.17549 0.31349 0.02800
C 	C 	0.07236 0.34037 0.35163 0.03000
C 	C 	0.02161 0.37131 0.30365 0.10200
C 	C 	0.00060 0.10516 0.31718 0.06900
C 	C 	0.14436 0.38193 0.34871 -0.04100
C 	C 	0.18153 0.44054 0.36471 0.03000
C 	C 	0.14874 0.45187 0.38640 -0.08100
C 	C 	0.07732 0.40710 0.39054 0.03100
C 	C 	0.03870 0.35258 0.37268 -0.05600
C 	C 	0.18011 0.36479 0.32887 0.10500
C 	C 	0.04320 0.41877 0.41252 0.08300
C 	C 	0.25173 0.49172 0.35754 0.07000
C 	C 	0.96458 0.30969 0.37577 0.12700
C 	C 	0.02105 0.19240 0.36152 0.10300
C 	C 	0.01651 0.29165 0.25861 0.09600
N 	N 	0.30752 0.53231 0.35146 -0.12400
N 	N 	0.20849 0.35102 0.31304 -0.10300
N 	N 	0.01603 0.42818 0.43006 -0.10600
N 	N 	0.90540 0.27540 0.37822 -0.10500
N 	N 	0.02097 0.42312 0.30124 -0.10300
N 	N 	0.01558 0.31213 0.23785 -0.09600
N 	N 	0.99115 0.04912 0.32021 -0.08200
N 	N 	0.02130 0.17233 0.38242 -0.10700
C 	C 	0.26844 0.85551 0.33119 -0.03700
C 	C 	0.19855 0.83648 0.33468 0.02400
C 	C 	0.15607 0.78040 0.35141 -0.03900
C 	C 	0.18327 0.74310 0.36433 0.02500
C 	C 	0.25469 0.76653 0.36293 -0.07700
C 	C 	0.29731 0.82276 0.34620 0.02400
C 	C 	0.16872 0.87365 0.31997 0.02000
C 	C 	0.08469 0.76198 0.35564 0.09800
C 	C 	0.37128 0.84988 0.34567 0.09200
C 	C 	0.12491 0.84075 0.29860 -0.03500
C 	C 	0.08552 0.86847 0.28809 0.02300
C 	C 	0.09968 0.93606 0.29537 -0.06100
C 	C 	0.14584 0.97077 0.31609 0.00500
C 	C 	0.17902 0.93871 0.32883 -0.03000
C 	C 	0.12013 0.77802 0.28756 0.10500
C 	C 	0.15685 0.03788 0.32501 0.11800
C 	C 	0.02683 0.82503 0.27168 0.07300
C 	C 	0.22324 0.97223 0.35111 0.09400
C 	C 	0.31054 0.90887 0.31223 0.10500
C 	C 	0.13791 0.68076 0.37922 0.09100
N 	N 	0.97983 0.78964 0.25874 -0.08800
N 	N 	0.11637 0.72799 0.27876 -0.10000
N 	N 	0.16560 0.09142 0.33211 -0.10200
N 	N 	0.25855 0.99892 0.36890 -0.11300
N 	N 	0.02777 0.74734 0.35901 -0.11000
N 	N 	0.10181 0.63111 0.39113 -0.10000
N 	N 	0.43038 0.87202 0.34522 -0.10000
N 	N 	0.34403 0.95144 0.29708 -0.10200
C 	C 	0.57102 0.08284 0.55739 -0.11700
C 	C 	0.53065 0.03515 0.57740 0.16300
C 	C 	0.50191 0.96301 0.57312 -0.12200
C 	C 	0.50603 0.93757 0.54844 0.01800
C 	C 	0.54423 0.98531 0.52818 0.04300
C 	C 	0.57911 0.05705 0.53336 0.01300
N 	N 	0.51595 0.05759 0.60000 -0.20600
H 	H 	0.47207 0.92643 0.58851 0.06800
C 	C 	0.46262 0.86185 0.54298 -0.00200
N 	N 	0.54582 0.96290 0.50353 -0.18800
H 	H 	0.61051 0.09328 0.51812 0.04800
C 	C 	0.39158 0.83428 0.53949 -0.09400
C 	C 	0.35331 0.77285 0.52509 0.13100
C 	C 	0.38773 0.74116 0.51287 -0.10500
C 	C 	0.45524 0.76097 0.52073 -0.02200
C 	C 	0.49283 0.82080 0.53623 0.06800
H 	H 	0.36696 0.86293 0.54652 0.06200
N 	N 	0.28418 0.74574 0.52238 -0.20300
H 	H 	0.48053 0.73378 0.51290 0.04600
N 	N 	0.55853 0.84038 0.54343 -0.19200
H 	H 	0.25976 0.77199 0.52984 0.09500
H 	H 	0.25366 0.69646 0.51435 0.10700
H 	H 	0.58168 0.81155 0.53743 0.09400
H 	H 	0.58628 0.88302 0.55575 0.09800
H 	H 	0.57715 0.99834 0.48918 0.09500
H 	H 	0.51353 0.91128 0.49790 0.10000
H 	H 	0.52512 0.10848 0.60200 0.11000
H 	H 	0.48989 0.02238 0.61518 0.10400
C 	C 	0.80060 0.51215 0.50792 -0.10300
C 	C 	0.83853 0.57642 0.52110 0.13700
C 	C 	0.90417 0.62565 0.51164 -0.09900
C 	C 	0.93037 0.61198 0.48883 0.01900
C 	C 	0.88539 0.55545 0.47279 0.06600
C 	C 	0.82086 0.50526 0.48267 -0.01600
N 	N 	0.81240 0.59107 0.54265 -0.20500
H 	H 	0.93683 0.67177 0.52306 0.06900
C 	C 	0.00574 0.64063 0.48658 -0.01200
N 	N 	0.90540 0.54731 0.44855 -0.19000
H 	H 	0.78878 0.45837 0.47153 0.04900
C 	C 	0.03463 0.60435 0.49875 -0.08900
C 	C 	0.10031 0.61666 0.49162 0.13000
C 	C 	0.13868 0.66808 0.47242 -0.11000
C 	C 	0.11326 0.71052 0.46276 -0.01900
C 	C 	0.04679 0.69725 0.46972 0.06500
H 	H 	0.00400 0.56314 0.51263 0.06300
N 	N 	0.12560 0.57804 0.50285 -0.20200
H 	H 	0.14351 0.75126 0.44866 0.05000
N 	N 	0.02222 0.73777 0.45972 -0.20100
H 	H 	0.09620 0.53938 0.51660 0.09300
H 	H 	0.17479 0.58649 0.49847 0.08300
H 	H 	0.05195 0.77805 0.44658 0.09300
H 	H 	0.97421 0.73079 0.46539 0.10500
H 	H 	0.87323 0.50368 0.43727 0.10100
H 	H 	0.95189 0.58535 0.44034 0.10900
H 	H 	0.76180 0.55778 0.54881 0.10400
H 	H 	0.84189 0.63751 0.55291 0.10000
C 	C 	0.39390 0.49940 0.43160 -0.10100
C 	C 	0.45371 0.52513 0.44725 0.13200
C 	C 	0.48035 0.48125 0.45343 -0.09300
C 	C 	0.45008 0.41341 0.44330 0.00200
C 	C 	0.39483 0.39041 0.42540 0.06700
C 	C 	0.36668 0.43348 0.41993 -0.01900
N 	N 	0.48616 0.59203 0.45610 -0.20200
H 	H 	0.52417 0.49953 0.46648 0.06200
C 	C 	0.47298 0.36545 0.45336 0.00400
N 	N 	0.36887 0.32741 0.41340 -0.19200
H 	H 	0.32210 0.41472 0.40724 0.05800
C 	C 	0.43309 0.31633 0.47257 -0.09800
C 	C 	0.46245 0.28611 0.48846 0.13800
C 	C 	0.53376 0.30928 0.48614 -0.11500
C 	C 	0.57027 0.34978 0.46435 -0.01600
C 	C 	0.53990 0.37729 0.44766 0.06300
H 	H 	0.38012 0.30378 0.47584 0.06500
N 	N 	0.42209 0.23441 0.50552 -0.20400
H 	H 	0.62368 0.36361 0.46132 0.05400
N 	N 	0.57552 0.41603 0.42654 -0.19100
H 	H 	0.37016 0.21985 0.50807 0.09800
H 	H 	0.44089 0.20564 0.51525 0.11300
H 	H 	0.62607 0.42698 0.42299 0.09400
H 	H 	0.55244 0.43337 0.41294 0.09800
H 	H 	0.32679 0.31000 0.40076 0.09900
H 	H 	0.39145 0.29616 0.41583 0.09900
H 	H 	0.47143 0.62781 0.44986 0.09800
H 	H 	0.52871 0.60980 0.46852 0.09300
C 	C 	0.82668 0.15837 0.60635 -0.03500
C 	C 	0.86927 0.19806 0.62716 0.02000
C 	C 	0.89604 0.27090 0.62762 -0.03500
C 	C 	0.87389 0.30257 0.60898 0.02200
C 	C 	0.82317 0.26106 0.59052 -0.07100
C 	C 	0.80559 0.19046 0.58747 0.02100
C 	C 	0.88531 0.16322 0.64885 0.02900
C 	C 	0.94519 0.31285 0.64760 0.10500
C 	C 	0.76861 0.15187 0.56448 0.09600
C 	C 	0.94594 0.15867 0.64784 -0.04700
C 	C 	0.96899 0.13953 0.67030 0.04500
C 	C 	0.92566 0.11397 0.69266 -0.07200
C 	C 	0.86575 0.12056 0.69392 0.02800
C 	C 	0.84429 0.14247 0.67167 -0.03800
C 	C 	0.98576 0.17568 0.62381 0.12800
C 	C 	0.83179 0.11412 0.71880 0.10100
C 	C 	0.04065 0.15722 0.67176 0.07700
C 	C 	0.78043 0.14468 0.67233 0.10600
C 	C 	0.80368 0.08444 0.60466 0.10400
C 	C 	0.90412 0.37776 0.60848 0.09300
N 	N 	0.09828 0.17273 0.67287 -0.09900
N 	N 	0.01748 0.18926 0.60462 -0.12100
N 	N 	0.80468 0.10946 0.73861 -0.09500
N 	N 	0.72950 0.14649 0.67282 -0.10700
N 	N 	0.98440 0.34623 0.66355 -0.10000
N 	N 	0.92869 0.43787 0.60821 -0.09800
N 	N 	0.73950 0.12093 0.54608 -0.10700
N 	N 	0.78536 0.02544 0.60334 -0.10200
C 	C 	0.34846 0.14313 0.62198 -0.03900
C 	C 	0.33303 0.18336 0.63923 0.02300
C 	C 	0.36925 0.25677 0.63696 -0.03700
C 	C 	0.42798 0.29010 0.62063 0.02400
C 	C 	0.44648 0.24939 0.60468 -0.07900
C 	C 	0.40126 0.17660 0.60323 0.02300
C 	C 	0.28116 0.14878 0.66066 0.02200
C 	C 	0.34658 0.29786 0.65170 0.10500
C 	C 	0.40753 0.13682 0.58193 0.08500
C 	C 	0.30323 0.15469 0.68688 -0.03400
C 	C 	0.25413 0.12658 0.70726 0.02500
C 	C 	0.18312 0.08792 0.70130 -0.06500
C 	C 	0.16177 0.07555 0.67498 0.01900
C 	C 	0.21004 0.11039 0.65483 -0.03100
C 	C 	0.37636 0.18922 0.69282 0.10500
C 	C 	0.09030 0.02684 0.66865 0.10400
C 	C 	0.27670 0.13575 0.73428 0.10000
C 	C 	0.18651 0.10854 0.62828 0.10400
C 	C 	0.31196 0.06766 0.62416 0.10000
C 	C 	0.46897 0.36566 0.62045 0.09800
N 	N 	0.29458 0.14300 0.75584 -0.09600
N 	N 	0.43472 0.21682 0.69752 -0.10100
N 	N 	0.03328 0.98801 0.66362 -0.12400
N 	N 	0.16776 0.10711 0.60709 -0.10600
N 	N 	0.32842 0.33055 0.66347 -0.10300
N 	N 	0.50152 0.42598 0.62034 -0.09900
N 	N 	0.41253 0.10511 0.56491 -0.10700
N 	N 	0.28280 0.00743 0.62592 -0.10700
C 	C 	0.76163 0.56684 0.66168 -0.03500
C 	C 	0.82534 0.61880 0.65134 0.02200
C 	C 	0.85214 0.60518 0.62850 -0.03500
C 	C 	0.81403 0.54083 0.61554 0.02000
C 	C 	0.74674 0.49242 0.62408 -0.07000
C 	C 	0.72169 0.50410 0.64784 0.02300
C 	C 	0.86316 0.68880 0.66408 0.02600
C 	C 	0.91801 0.65805 0.61798 0.09900
C 	C 	0.65459 0.45235 0.65782 0.09900
C 	C 	0.91864 0.70462 0.68111 -0.04000
C 	C 	0.95161 0.76933 0.69411 0.04200
C 	C 	0.92277 0.81369 0.69304 -0.06700
C 	C 	0.87522 0.80318 0.67285 0.02400
C 	C 	0.84393 0.73968 0.65892 -0.03700
C 	C 	0.94105 0.65405 0.68552 0.11100
C 	C 	0.86413 0.85972 0.66460 0.09900
C 	C 	0.01862 0.79341 0.70595 0.06900
C 	C 	0.79186 0.72650 0.63939 0.10200
C 	C 	0.73687 0.57845 0.68636 0.10600
C 	C 	0.84411 0.52402 0.59352 0.08300
N 	N 	0.07217 0.81263 0.71536 -0.10400
N 	N 	0.95890 0.61363 0.68901 -0.10100
N 	N 	0.85529 0.90485 0.65797 -0.10100
N 	N 	0.75028 0.71587 0.62381 -0.10900
N 	N 	0.97057 0.70028 0.60960 -0.10700
N 	N 	0.86805 0.51057 0.57594 -0.10500
N 	N 	0.60111 0.41105 0.66582 -0.09500
N 	N 	0.71721 0.58782 0.70605 -0.09900
C 	C 	0.19504 0.62327 0.02929 -0.09900
C 	C 	0.20751 0.66464 0.00656 0.13000
C 	C 	0.16139 0.63801 0.98555 -0.09400
C 	C 	0.09773 0.57659 0.98850 -0.00300
C 	C 	0.08046 0.54077 0.01281 0.06800
C 	C 	0.13010 0.56339 0.03274 -0.02400
N 	N 	0.26199 0.73074 0.00530 -0.20100
H 	H 	0.17341 0.66701 0.96733 0.06200
C 	C 	0.04894 0.55094 0.96625 0.01500
N 	N 	0.01660 0.48491 0.01712 -0.20100
H 	H 	0.11881 0.53301 0.05058 0.06000
C 	C 	0.03823 0.49098 0.95278 -0.11900
C 	C 	0.98046 0.45492 0.93649 0.15600
C 	C 	0.93363 0.47991 0.93354 -0.11300
C 	C 	0.95158 0.54620 0.94324 0.00200
C 	C 	0.00741 0.58101 0.96032 0.04100
H 	H 	0.07238 0.47003 0.95624 0.06900
N 	N 	0.96920 0.39553 0.92431 -0.19900
H 	H 	0.91748 0.56708 0.94001 0.05200
N 	N 	0.01879 0.64140 0.97180 -0.19700
H 	H 	0.00260 0.37574 0.92724 0.08900
H 	H 	0.92838 0.36977 0.91120 0.10800
H 	H 	0.98764 0.66294 0.96723 0.10200
H 	H 	0.05806 0.66740 0.98542 0.09200
H 	H 	0.00517 0.45754 0.03481 0.09200
H 	H 	0.97706 0.46954 0.00344 0.10600
H 	H 	0.29067 0.75557 0.02195 0.09900
H 	H 	0.27313 0.75967 0.98799 0.09200
C 	C 	0.70260 0.21199 0.99339 -0.10800
C 	C 	0.72962 0.17353 0.98103 0.14000
C 	C 	0.70706 0.10470 0.98913 -0.09500
C 	C 	0.66056 0.07604 0.01005 0.02100
C 	C 	0.64860 0.12081 0.02629 0.06400
C 	C 	0.67000 0.18912 0.01774 -0.01700
N 	N 	0.77334 0.20084 0.96033 -0.20400
H 	H 	0.72128 0.07203 0.97796 0.07400
C 	C 	0.61605 0.99924 0.01193 -0.00900
N 	N 	0.61497 0.09785 0.04950 -0.19000
H 	H 	0.65511 0.22152 0.02870 0.04600
C 	C 	0.64482 0.95863 0.02005 -0.09300
C 	C 	0.60211 0.88766 0.02600 0.13400
C 	C 	0.52959 0.85871 0.02580 -0.10500
C 	C 	0.50126 0.89699 0.01477 -0.01800
C 	C 	0.54417 0.96667 0.00702 0.05900
H 	H 	0.70031 0.98248 0.02220 0.06000
N 	N 	0.63075 0.84767 0.03207 -0.20500
H 	H 	0.44565 0.87372 0.01341 0.04200
N 	N 	0.51633 0.00186 0.99496 -0.17600
H 	H 	0.68429 0.87001 0.03362 0.09300
H 	H 	0.60039 0.79356 0.03374 0.10900
H 	H 	0.46293 0.97845 0.99247 0.08400
H 	H 	0.54746 0.05129 0.98682 0.10600
H 	H 	0.60368 0.13021 0.06088 0.09900
H 	H 	0.60202 0.04865 0.05687 0.10800
H 	H 	0.79192 0.25253 0.95446 0.09900
H 	H 	0.79058 0.17106 0.95033 0.10100
C 	C 	0.57442 0.38847 0.99996 -0.11000
C 	C 	0.59982 0.38675 0.02507 0.13300
C 	C 	0.60313 0.43363 0.04427 -0.09800
C 	C 	0.57262 0.47498 0.03994 0.00600
C 	C 	0.53643 0.46753 0.01631 0.07100
C 	C 	0.53919 0.42552 0.99626 -0.01300
N 	N 	0.62026 0.33973 0.03086 -0.20700
H 	H 	0.62859 0.43722 0.06271 0.06300
C 	C 	0.58386 0.53010 0.05904 0.00300
N 	N 	0.49989 0.50114 0.01267 -0.19000
H 	H 	0.51713 0.42474 0.97730 0.05600
C 	C 	0.62717 0.60042 0.05206 -0.09500
C 	C 	0.61743 0.65256 0.06368 0.13500
C 	C 	0.56175 0.63280 0.08106 -0.11000
C 	C 	0.53512 0.56796 0.09362 -0.01500
C 	C 	0.54178 0.51434 0.08165 0.07200
H 	H 	0.66445 0.61375 0.03638 0.06500
N 	N 	0.66019 0.72072 0.05771 -0.20600
H 	H 	0.49912 0.55555 0.10970 0.06000
N 	N 	0.50514 0.44798 0.09100 -0.19200
H 	H 	0.69905 0.73507 0.04367 0.09400
H 	H 	0.65750 0.76001 0.06809 0.10700
H 	H 	0.47250 0.43673 0.10716 0.10700
H 	H 	0.50930 0.40718 0.08262 0.10100
H 	H 	0.47579 0.49768 0.99479 0.09800
H 	H 	0.49254 0.52844 0.02782 0.10200
H 	H 	0.60819 0.29773 0.01848 0.11000
H 	H 	0.64345 0.34161 0.04880 0.09400
C 	C 	0.84233 0.14106 0.83408 -0.03400
C 	C 	0.77036 0.09715 0.83124 0.02100
C 	C 	0.74482 0.04108 0.81354 -0.02300
C 	C 	0.79074 0.03131 0.79755 0.04200
C 	C 	0.86301 0.07366 0.80094 -0.07700
C 	C 	0.88863 0.12816 0.81949 0.02300
C 	C 	0.72137 0.11275 0.84570 0.02500
C 	C 	0.67108 0.99342 0.81178 0.08700
C 	C 	0.96225 0.16923 0.82425 0.11400
C 	C 	0.69311 0.14997 0.83325 -0.03500
C 	C 	0.65699 0.17511 0.84818 0.02400
C 	C 	0.65461 0.16822 0.87558 -0.06600
C 	C 	0.66948 0.11920 0.88691 0.01700
C 	C 	0.70488 0.09271 0.87216 -0.03500
C 	C 	0.70357 0.16464 0.80546 0.10700
C 	C 	0.64590 0.09421 0.91318 0.08400
C 	C 	0.62512 0.21089 0.83564 0.09500
C 	C 	0.72569 0.04661 0.88421 0.10100
C 	C 	0.86863 0.19944 0.85204 0.10400
C 	C 	0.76360 0.97894 0.77711 0.06500
N 	N 	0.59959 0.23938 0.82560 -0.09600
N 	N 	0.71196 0.17629 0.78327 -0.09900
N 	N 	0.62647 0.07383 0.93410 -0.10700
N 	N 	0.74236 0.00981 0.89382 -0.10300
N 	N 	0.61224 0.95545 0.81039 -0.10400
N 	N 	0.74190 0.93717 0.76082 -0.11600
N 	N 	0.02098 0.20195 0.82808 -0.11100
N 	N 	0.88949 0.24598 0.86638 -0.11000
C 	C 	0.27088 0.21552 0.82682 -0.03700
C 	C 	0.30695 0.18276 0.83647 0.02700
C 	C 	0.27674 0.10955 0.83463 -0.04100
C 	C 	0.20905 0.06932 0.82505 0.04600
C 	C 	0.17659 0.10228 0.81240 -0.07700
C 	C 	0.20841 0.17616 0.81309 0.03000
C 	C 	0.37436 0.22447 0.85039 0.02300
C 	C 	0.31569 0.07584 0.84222 0.11100
C 	C 	0.17938 0.21198 0.79859 0.08500
C 	C 	0.37848 0.21467 0.87739 -0.03700
C 	C 	0.44332 0.24112 0.88935 0.02700
C 	C 	0.50358 0.29211 0.87619 -0.07500
C 	C 	0.49827 0.30855 0.84981 0.02800
C 	C 	0.43493 0.27042 0.83641 -0.03500
C 	C 	0.31595 0.17661 0.89280 0.10400
C 	C 	0.55661 0.36604 0.83678 0.10000
C 	C 	0.44841 0.21050 0.91378 0.07200
C 	C 	0.43241 0.27748 0.80831 0.11000
C 	C 	0.29766 0.28944 0.83119 0.10600
C 	C 	0.17194 0.99431 0.82896 0.07000
N 	N 	0.45220 0.18581 0.93324 -0.12700
N 	N 	0.26602 0.14620 0.90507 -0.10500
N 	N 	0.60313 0.41192 0.82635 -0.09300
N 	N 	0.43036 0.28310 0.78587 -0.09800
N 	N 	0.34683 0.04901 0.84829 -0.10300
N 	N 	0.14227 0.93445 0.83210 -0.09900
N 	N 	0.15637 0.24069 0.78699 -0.11300
N 	N 	0.31909 0.34844 0.83468 -0.10400
C 	C 	0.86778 0.82948 0.86316 -0.04000
C 	C 	0.82579 0.75638 0.86279 0.02400
C 	C 	0.79991 0.72218 0.83876 -0.03700
C 	C 	0.82783 0.75806 0.81509 0.02400
C 	C 	0.87741 0.82994 0.81551 -0.07500
C 	C 	0.89344 0.86654 0.83949 0.03200
C 	C 	0.82455 0.71456 0.88584 0.02300
C 	C 	0.74762 0.64892 0.83854 0.10400
C 	C 	0.93571 0.94199 0.83982 0.08100
C 	C 	0.76738 0.68536 0.90293 -0.03800
C 	C 	0.75270 0.62535 0.91773 0.02500
C 	C 	0.79193 0.59187 0.91367 -0.08100
C 	C 	0.85224 0.62508 0.89794 0.02200
C 	C 	0.87204 0.69052 0.88679 -0.03900
C 	C 	0.72285 0.71556 0.90462 0.10200
C 	C 	0.88738 0.58810 0.88969 0.07600
C 	C 	0.69568 0.59631 0.93616 0.08700
C 	C 	0.93870 0.73008 0.87407 0.10200
C 	C 	0.88669 0.86599 0.88792 0.10400
C 	C 	0.80857 0.72025 0.79056 0.09700
N 	N 	0.65020 0.57306 0.95089 -0.10500
N 	N 	0.68731 0.73974 0.90596 -0.10800
N 	N 	0.91646 0.56005 0.88251 -0.09700
N 	N 	0.99185 0.76173 0.86389 -0.10100
N 	N 	0.70592 0.59044 0.83842 -0.10100
N 	N 	0.79322 0.69007 0.77100 -0.09200
N 	N 	0.96942 0.00219 0.84021 -0.07600
N 	N 	0.90175 0.89507 0.90771 -0.10800
