data_crystal

_cell_length_a 35.16921
_cell_length_b 58.31086
_cell_length_c 17.89379
_cell_angle_alpha 89.99970
_cell_angle_beta  89.99989
_cell_angle_gamma 91.54903

_symmetry_space_group_name_	'P 1'
_symmetry_space_group_name_H-M	'P 1'

loop_
_symmetry_equiv_pos_as_xyz
  x,y,z

loop_
_atom_site_label
_atom_site_type_symbol
_atom_site_fract_x
_atom_site_fract_y
_atom_site_fract_z
_atom_site_charge
Cu	Cu	0.61609 0.79987 0.94784 0.94400
Cu	Cu	0.57792 0.84856 0.98793 0.91500
Cu	Cu	0.55500 0.80517 0.06776 0.91100
Cu	Cu	0.59568 0.75947 0.05945 0.92900
C 	C 	0.67062 0.76615 0.98535 0.39500
O 	O 	0.58896 0.77567 0.88479 -0.30200
C 	C 	0.50442 0.84467 0.05031 0.39000
O 	O 	0.60447 0.79163 0.06050 -0.63300
O 	O 	0.56879 0.81633 0.96548 -0.63100
O 	O 	0.64748 0.82655 0.91309 -0.31100
O 	O 	0.63042 0.84836 0.01141 -0.37600
O 	O 	0.64263 0.75163 0.00300 -0.32400
O 	O 	0.54397 0.79316 0.16676 -0.31500
C 	C 	0.54439 0.77119 0.18450 0.38600
C 	C 	0.55717 0.76539 0.90711 0.37600
O 	O 	0.54975 0.76327 0.97890 -0.33300
O 	O 	0.57165 0.75794 0.16016 -0.31200
O 	O 	0.66383 0.78525 0.94907 -0.29800
C 	C 	0.65484 0.84368 0.95872 0.39000
O 	O 	0.50983 0.82425 0.08038 -0.32500
O 	O 	0.52458 0.85205 0.99291 -0.34700
H 	H 	0.62300 0.79722 0.09845 0.21000
H 	H 	0.54849 0.81343 0.92803 0.22700
Cu	Cu	0.87719 0.70145 0.95061 0.94500
Cu	Cu	0.91374 0.65195 0.98739 0.91500
Cu	Cu	0.93804 0.69452 0.06959 0.91300
Cu	Cu	0.90006 0.74081 0.06463 0.92600
C 	C 	0.82453 0.73600 0.99101 0.40300
O 	O 	0.90504 0.72555 0.88842 -0.30200
C 	C 	0.98727 0.65457 0.05025 0.38500
O 	O 	0.88939 0.70883 0.06361 -0.63400
O 	O 	0.92393 0.68419 0.96660 -0.63100
O 	O 	0.84448 0.67547 0.91452 -0.31200
O 	O 	0.86135 0.65287 0.01104 -0.37800
O 	O 	0.85327 0.74987 0.00966 -0.32800
O 	O 	0.94826 0.70502 0.17022 -0.31900
C 	C 	0.95040 0.72682 0.18976 0.38800
C 	C 	0.93723 0.73531 0.91081 0.38000
O 	O 	0.94519 0.73671 0.98253 -0.33900
O 	O 	0.92561 0.74163 0.16448 -0.31400
O 	O 	0.83026 0.71696 0.95356 -0.30400
C 	C 	0.83712 0.65789 0.95839 0.39200
O 	O 	0.98266 0.67499 0.08082 -0.30900
O 	O 	0.96693 0.64765 0.99249 -0.34800
H 	H 	0.87072 0.70338 0.10150 0.21300
H 	H 	0.94433 0.68705 0.92935 0.22800
Cu	Cu	0.77956 0.45075 0.26004 0.94400
Cu	Cu	0.81989 0.40175 0.23106 0.91100
Cu	Cu	0.86501 0.44669 0.23115 0.91500
Cu	Cu	0.83647 0.49320 0.27743 0.92400
C 	C 	0.76411 0.48729 0.36124 0.38000
O 	O 	0.76675 0.47191 0.17516 -0.32500
C 	C 	0.88917 0.40499 0.15164 0.39200
O 	O 	0.83317 0.46168 0.30249 -0.63300
O 	O 	0.81480 0.43320 0.19758 -0.63000
O 	O 	0.74654 0.42472 0.29460 -0.31300
O 	O 	0.79691 0.40351 0.32650 -0.38300
O 	O 	0.78636 0.50131 0.32176 -0.30600
O 	O 	0.91199 0.46033 0.27002 -0.31600
C 	C 	0.91965 0.48261 0.27487 0.38300
C 	C 	0.79308 0.48172 0.13317 0.39700
O 	O 	0.82763 0.48532 0.15940 -0.34800
O 	O 	0.89277 0.49737 0.29043 -0.31700
O 	O 	0.75242 0.46738 0.33359 -0.30500
C 	C 	0.76050 0.40736 0.33090 0.41300
O 	O 	0.89725 0.42651 0.17085 -0.30700
O 	O 	0.85395 0.39688 0.15077 -0.35000
H 	H 	0.83895 0.45811 0.35532 0.21100
H 	H 	0.81064 0.43458 0.14306 0.23200
Cu	Cu	0.21431 0.54981 0.25596 0.94400
Cu	Cu	0.17250 0.59844 0.23019 0.91200
Cu	Cu	0.12852 0.55311 0.23074 0.91500
Cu	Cu	0.15865 0.50678 0.27691 0.92600
C 	C 	0.23200 0.51356 0.35645 0.38000
O 	O 	0.22617 0.52877 0.17029 -0.32300
C 	C 	0.10258 0.59463 0.15307 0.39700
O 	O 	0.16148 0.53841 0.30105 -0.63200
O 	O 	0.17799 0.56713 0.19565 -0.63100
O 	O 	0.24707 0.57609 0.28915 -0.31100
O 	O 	0.19663 0.59673 0.32458 -0.37900
O 	O 	0.20963 0.49925 0.31835 -0.30800
O 	O 	0.08216 0.53881 0.27002 -0.32000
C 	C 	0.07555 0.51643 0.27434 0.39400
C 	C 	0.19937 0.51876 0.12989 0.39500
O 	O 	0.16542 0.51464 0.15841 -0.34200
O 	O 	0.10270 0.50232 0.29370 -0.32300
O 	O 	0.24296 0.53344 0.32769 -0.30500
C 	C 	0.23315 0.59308 0.32735 0.41100
O 	O 	0.09540 0.57293 0.17133 -0.32400
O 	O 	0.13751 0.60319 0.15136 -0.35100
H 	H 	0.15625 0.54207 0.35404 0.21200
H 	H 	0.18162 0.56593 0.14094 0.23300
Cu	Cu	0.71157 0.55209 0.76153 0.94300
Cu	Cu	0.66850 0.60016 0.73411 0.91400
Cu	Cu	0.62603 0.55445 0.73228 0.91500
Cu	Cu	0.65721 0.50835 0.77697 0.92500
C 	C 	0.72898 0.51565 0.86175 0.38200
O 	O 	0.72604 0.53167 0.67575 -0.32300
C 	C 	0.60013 0.59578 0.65234 0.39300
O 	O 	0.65857 0.53979 0.80305 -0.63300
O 	O 	0.67549 0.56901 0.69953 -0.63400
O 	O 	0.74193 0.57884 0.79864 -0.31800
O 	O 	0.68977 0.59843 0.83130 -0.36900
O 	O 	0.70774 0.50124 0.82160 -0.30800
O 	O 	0.57987 0.53975 0.77052 -0.31700
C 	C 	0.57338 0.51734 0.77388 0.38300
C 	C 	0.70041 0.52123 0.63359 0.39600
O 	O 	0.66600 0.51686 0.65947 -0.34900
O 	O 	0.60100 0.50302 0.78884 -0.31600
O 	O 	0.73958 0.53586 0.83484 -0.29600
C 	C 	0.72615 0.59476 0.83884 0.39700
O 	O 	0.59266 0.57431 0.67309 -0.30800
O 	O 	0.63500 0.60446 0.65263 -0.35100
H 	H 	0.65254 0.54305 0.85599 0.21000
H 	H 	0.67983 0.56789 0.64499 0.23000
Cu	Cu	0.27927 0.44950 0.75520 0.94400
Cu	Cu	0.32056 0.40071 0.72910 0.91200
Cu	Cu	0.36497 0.44579 0.72979 0.91400
Cu	Cu	0.33546 0.49219 0.77720 0.92600
C 	C 	0.26196 0.48567 0.85630 0.38000
O 	O 	0.26787 0.47082 0.67011 -0.32300
C 	C 	0.39048 0.40433 0.65116 0.39600
O 	O 	0.33223 0.46049 0.80060 -0.63200
O 	O 	0.31533 0.43206 0.69461 -0.63100
O 	O 	0.24603 0.42335 0.78718 -0.31300
O 	O 	0.29592 0.40231 0.82313 -0.38100
O 	O 	0.28451 0.49990 0.81830 -0.30700
O 	O 	0.41156 0.45988 0.76879 -0.32000
C 	C 	0.41825 0.48224 0.77372 0.39300
C 	C 	0.29489 0.48062 0.62974 0.39400
O 	O 	0.32883 0.48460 0.65846 -0.34200
O 	O 	0.39133 0.49626 0.79478 -0.32300
O 	O 	0.25084 0.46583 0.82745 -0.30500
C 	C 	0.25948 0.40624 0.82542 0.41400
O 	O 	0.39772 0.42602 0.66946 -0.32400
O 	O 	0.35554 0.39573 0.65023 -0.34800
H 	H 	0.33741 0.45668 0.85349 0.21200
H 	H 	0.31171 0.43329 0.63991 0.23400
Cu	Cu	0.61307 0.29556 0.44552 0.94500
Cu	Cu	0.57720 0.34584 0.47471 0.90700
Cu	Cu	0.55268 0.30426 0.56440 0.91500
Cu	Cu	0.59113 0.25804 0.56709 0.92400
C 	C 	0.66661 0.26289 0.49513 0.37800
O 	O 	0.58490 0.27047 0.38871 -0.30800
C 	C 	0.50462 0.34435 0.54291 0.39100
O 	O 	0.60145 0.29004 0.56018 -0.63300
O 	O 	0.56657 0.31325 0.45982 -0.63000
O 	O 	0.64526 0.32049 0.40124 -0.30200
O 	O 	0.63032 0.34555 0.49252 -0.38000
O 	O 	0.63869 0.24867 0.51581 -0.31000
O 	O 	0.54243 0.29517 0.66671 -0.31600
C 	C 	0.54086 0.27368 0.68989 0.38700
C 	C 	0.55257 0.26138 0.41284 0.38100
O 	O 	0.54534 0.26043 0.48495 -0.33900
O 	O 	0.56604 0.25876 0.66715 -0.31700
O 	O 	0.65994 0.28001 0.44940 -0.30500
C 	C 	0.65311 0.33931 0.43883 0.40500
O 	O 	0.50791 0.32366 0.57221 -0.30900
O 	O 	0.52410 0.35065 0.48329 -0.35300
H 	H 	0.62022 0.29621 0.59676 0.21100
H 	H 	0.54598 0.30994 0.42336 0.23200
Cu	Cu	0.87690 0.20480 0.44810 0.94500
Cu	Cu	0.91250 0.15452 0.47798 0.90900
Cu	Cu	0.93704 0.19605 0.56745 0.91500
Cu	Cu	0.89876 0.24241 0.56934 0.92500
C 	C 	0.82337 0.23759 0.49690 0.37900
O 	O 	0.90524 0.22977 0.39107 -0.31000
C 	C 	0.98525 0.15592 0.54549 0.39000
O 	O 	0.88838 0.21041 0.56274 -0.63200
O 	O 	0.92328 0.18706 0.46284 -0.63100
O 	O 	0.84461 0.17984 0.40433 -0.30300
O 	O 	0.85942 0.15493 0.49614 -0.37900
O 	O 	0.85126 0.25179 0.51780 -0.31000
O 	O 	0.94727 0.20531 0.66963 -0.31700
C 	C 	0.94889 0.22684 0.69242 0.38700
C 	C 	0.93753 0.23887 0.41533 0.38100
O 	O 	0.94465 0.23988 0.48748 -0.33900
O 	O 	0.92368 0.24173 0.66953 -0.31600
O 	O 	0.83010 0.22043 0.45142 -0.30600
C 	C 	0.83659 0.16115 0.44248 0.40500
O 	O 	0.98159 0.17643 0.57598 -0.31000
O 	O 	0.96558 0.14970 0.48602 -0.35100
H 	H 	0.86949 0.20431 0.59922 0.21100
H 	H 	0.94395 0.19032 0.42649 0.23200
Cu	Cu	0.71122 0.04974 0.26175 0.94300
Cu	Cu	0.67217 0.09926 0.23332 0.91700
Cu	Cu	0.62625 0.05432 0.22853 0.91400
Cu	Cu	0.65474 0.00704 0.26698 0.92900
C 	C 	0.72677 0.01095 0.35378 0.37600
O 	O 	0.72578 0.02969 0.17489 -0.32200
C 	C 	0.60398 0.09708 0.15115 0.38100
O 	O 	0.65713 0.03803 0.29850 -0.63300
O 	O 	0.67710 0.06797 0.19890 -0.63000
O 	O 	0.74375 0.07526 0.30190 -0.31000
O 	O 	0.69306 0.09662 0.33019 -0.38400
O 	O 	0.70520 0.99820 0.30876 -0.29900
O 	O 	0.57886 0.03974 0.26205 -0.32100
C 	C 	0.57154 0.01736 0.26288 0.39500
C 	C 	0.70024 0.02091 0.12881 0.39300
O 	O 	0.66509 0.01724 0.15155 -0.34200
O 	O 	0.59838 0.00250 0.27751 -0.31800
O 	O 	0.73641 0.03225 0.33580 -0.30200
C 	C 	0.72934 0.09273 0.33691 0.40700
O 	O 	0.59439 0.07588 0.17210 -0.31300
O 	O 	0.63967 0.10432 0.15098 -0.34100
H 	H 	0.65052 0.04053 0.35162 0.20700
H 	H 	0.68205 0.06693 0.14456 0.22600
Cu	Cu	0.27666 0.95027 0.24879 0.94400
Cu	Cu	0.31799 0.90135 0.22658 0.91000
Cu	Cu	0.36254 0.94647 0.22536 0.91500
Cu	Cu	0.33276 0.99315 0.26898 0.92600
C 	C 	0.25920 0.98689 0.34792 0.37900
O 	O 	0.26539 0.97095 0.16185 -0.32300
C 	C 	0.38830 0.90441 0.15057 0.39300
O 	O 	0.32945 0.96162 0.29436 -0.63200
O 	O 	0.31305 0.93251 0.19010 -0.63100
O 	O 	0.24340 0.92430 0.28261 -0.31100
O 	O 	0.29338 0.90363 0.32035 -0.38100
O 	O 	0.28185 0.00105 0.30983 -0.30600
O 	O 	0.40892 0.96077 0.26470 -0.31600
C 	C 	0.41582 0.98314 0.26820 0.38300
C 	C 	0.29243 0.98084 0.12174 0.39600
O 	O 	0.32631 0.98488 0.15070 -0.34700
O 	O 	0.38870 0.99745 0.28622 -0.31400
O 	O 	0.24783 0.96710 0.31907 -0.30500
C 	C 	0.25690 0.90746 0.32213 0.41200
O 	O 	0.39565 0.92618 0.16766 -0.30800
O 	O 	0.35327 0.89600 0.14874 -0.35300
H 	H 	0.33438 0.95815 0.34760 0.21000
H 	H 	0.30968 0.93345 0.13527 0.23300
Cu	Cu	0.11274 0.79545 0.44622 0.94200
Cu	Cu	0.07434 0.84510 0.47292 0.90600
Cu	Cu	0.05142 0.80322 0.56454 0.91700
Cu	Cu	0.09372 0.75780 0.56866 0.92700
C 	C 	0.16828 0.76365 0.49396 0.38000
O 	O 	0.08567 0.76957 0.39093 -0.31300
C 	C 	0.00201 0.84261 0.54126 0.39700
O 	O 	0.10146 0.79003 0.56116 -0.62900
O 	O 	0.06535 0.81227 0.45994 -0.62900
O 	O 	0.14326 0.82078 0.40002 -0.31000
O 	O 	0.12754 0.84601 0.49017 -0.38100
O 	O 	0.14085 0.74916 0.51484 -0.30900
O 	O 	0.03828 0.79243 0.66465 -0.30900
C 	C 	0.04055 0.77089 0.68659 0.39000
C 	C 	0.05401 0.75990 0.41623 0.38000
O 	O 	0.04712 0.75925 0.48845 -0.33100
O 	O 	0.07036 0.75875 0.66928 -0.32400
O 	O 	0.16076 0.78110 0.45025 -0.30500
C 	C 	0.15048 0.83985 0.43665 0.40600
O 	O 	0.00571 0.82196 0.57061 -0.31200
O 	O 	0.02103 0.84892 0.48115 -0.35600
H 	H 	0.11985 0.79679 0.59741 0.20900
H 	H 	0.04513 0.80843 0.42316 0.21900
Cu	Cu	0.37898 0.70515 0.44536 0.94500
Cu	Cu	0.41421 0.65496 0.47813 0.91000
Cu	Cu	0.43988 0.69724 0.56447 0.91300
Cu	Cu	0.40034 0.74369 0.56372 0.92800
C 	C 	0.32529 0.73825 0.49104 0.37800
O 	O 	0.40746 0.72985 0.38737 -0.31000
C 	C 	0.48696 0.65652 0.54515 0.39500
O 	O 	0.39077 0.71154 0.55965 -0.62900
O 	O 	0.42526 0.68740 0.46100 -0.63000
O 	O 	0.34688 0.68006 0.40183 -0.30300
O 	O 	0.36106 0.65550 0.49490 -0.37800
O 	O 	0.35319 0.75261 0.51036 -0.31200
O 	O 	0.45367 0.70873 0.66340 -0.31200
C 	C 	0.45285 0.73053 0.68317 0.38800
C 	C 	0.43988 0.73889 0.41124 0.37800
O 	O 	0.44669 0.74062 0.48336 -0.33200
O 	O 	0.42398 0.74327 0.66427 -0.32100
O 	O 	0.33201 0.72063 0.44753 -0.30700
C 	C 	0.33870 0.66144 0.44017 0.40600
O 	O 	0.48433 0.67748 0.57276 -0.32300
O 	O 	0.46718 0.64996 0.48624 -0.35300
H 	H 	0.37204 0.70554 0.59659 0.20900
H 	H 	0.44568 0.69032 0.42384 0.23000
Cu	Cu	0.11108 0.29610 0.94593 0.94300
Cu	Cu	0.07303 0.34577 0.97343 0.90800
Cu	Cu	0.05167 0.30417 0.06754 0.91600
Cu	Cu	0.09351 0.25853 0.06884 0.92800
C 	C 	0.16702 0.26377 0.98855 0.40200
O 	O 	0.08350 0.27019 0.89161 -0.30600
C 	C 	0.00165 0.34353 0.04543 0.39100
O 	O 	0.10140 0.29074 0.06118 -0.63100
O 	O 	0.06390 0.31291 0.96188 -0.62900
O 	O 	0.14096 0.32142 0.89846 -0.31000
O 	O 	0.12640 0.34684 0.98893 -0.37600
O 	O 	0.13966 0.24958 0.01178 -0.32600
O 	O 	0.04052 0.29366 0.16871 -0.30900
C 	C 	0.04244 0.27208 0.19044 0.38800
C 	C 	0.05225 0.26038 0.91824 0.37700
O 	O 	0.04599 0.25995 0.99072 -0.32900
O 	O 	0.07140 0.25950 0.17080 -0.31600
O 	O 	0.15918 0.28190 0.94813 -0.31100
C 	C 	0.14900 0.34035 0.93522 0.39400
O 	O 	0.00638 0.32325 0.07692 -0.31400
O 	O 	0.01984 0.34944 0.98394 -0.34900
H 	H 	0.12043 0.29739 0.09634 0.21200
H 	H 	0.04312 0.30893 0.92645 0.21900
Cu	Cu	0.37885 0.20458 0.94336 0.94300
Cu	Cu	0.41783 0.15501 0.96806 0.91200
Cu	Cu	0.43825 0.19627 0.06492 0.91400
Cu	Cu	0.39633 0.24196 0.06693 0.92800
C 	C 	0.32273 0.23665 0.98704 0.40100
O 	O 	0.40612 0.23069 0.88947 -0.30600
C 	C 	0.48893 0.15715 0.04055 0.37500
O 	O 	0.38858 0.20976 0.05866 -0.63100
O 	O 	0.42627 0.18795 0.95876 -0.62900
O 	O 	0.34912 0.17924 0.89553 -0.31000
O 	O 	0.36457 0.15357 0.98463 -0.37600
O 	O 	0.35003 0.25088 0.01030 -0.32600
O 	O 	0.44921 0.20660 0.16635 -0.31200
C 	C 	0.44749 0.22818 0.18815 0.39100
C 	C 	0.43740 0.24048 0.91607 0.37700
O 	O 	0.44376 0.24080 0.98851 -0.32700
O 	O 	0.41859 0.24085 0.16878 -0.31800
O 	O 	0.33063 0.21863 0.94616 -0.31100
C 	C 	0.34160 0.16012 0.93165 0.39500
O 	O 	0.48326 0.17690 0.07497 -0.30500
O 	O 	0.47112 0.15194 0.97801 -0.33900
H 	H 	0.36952 0.20304 0.09364 0.21000
H 	H 	0.44703 0.19226 0.92366 0.21600
Cu	Cu	0.78003 0.94857 0.76119 0.94400
Cu	Cu	0.82232 0.90016 0.73495 0.91500
Cu	Cu	0.86493 0.94578 0.72582 0.91500
Cu	Cu	0.83477 0.99218 0.76735 0.92300
C 	C 	0.76479 0.98596 0.85863 0.38400
O 	O 	0.76408 0.96849 0.67531 -0.30600
C 	C 	0.88929 0.90368 0.64855 0.39500
O 	O 	0.83387 0.96110 0.79756 -0.63400
O 	O 	0.81479 0.93102 0.69798 -0.63000
O 	O 	0.75013 0.92226 0.80258 -0.31400
O 	O 	0.80271 0.90280 0.83323 -0.36700
O 	O 	0.78517 0.99990 0.81518 -0.31800
O 	O 	0.91188 0.96062 0.75963 -0.32000
C 	C 	0.91856 0.98304 0.76160 0.39500
C 	C 	0.78907 0.97757 0.62871 0.36900
O 	O 	0.82401 0.98212 0.65152 -0.33000
O 	O 	0.89113 0.99762 0.77499 -0.32300
O 	O 	0.75371 0.96545 0.83503 -0.29700
C 	C 	0.76648 0.90653 0.84267 0.39700
O 	O 	0.89700 0.92540 0.66583 -0.32500
O 	O 	0.85445 0.89502 0.65184 -0.35300
H 	H 	0.84100 0.95845 0.85033 0.21300
H 	H 	0.80937 0.93161 0.64372 0.21700
Cu	Cu	0.21279 0.05075 0.74833 0.94400
Cu	Cu	0.17102 0.09950 0.72455 0.91100
Cu	Cu	0.12699 0.05432 0.72425 0.91500
Cu	Cu	0.15686 0.00789 0.76925 0.92500
C 	C 	0.23046 0.01429 0.84809 0.37900
O 	O 	0.22419 0.02981 0.66222 -0.32200
C 	C 	0.10081 0.09595 0.64770 0.39200
O 	O 	0.16004 0.03947 0.79398 -0.63200
O 	O 	0.17641 0.06830 0.68880 -0.63100
O 	O 	0.24587 0.07687 0.78120 -0.31200
O 	O 	0.19581 0.09757 0.81833 -0.38300
O 	O 	0.20788 0.00011 0.80992 -0.30600
O 	O 	0.08070 0.04018 0.76420 -0.31700
C 	C 	0.07382 0.01783 0.76827 0.38400
C 	C 	0.19716 0.02000 0.62191 0.39500
O 	O 	0.16329 0.01592 0.65080 -0.34800
O 	O 	0.10096 0.00356 0.78658 -0.31500
O 	O 	0.24154 0.03418 0.81954 -0.30400
C 	C 	0.23230 0.09379 0.82019 0.41400
O 	O 	0.09384 0.07417 0.66516 -0.30800
O 	O 	0.13568 0.10464 0.64643 -0.34800
H 	H 	0.15499 0.04306 0.84709 0.21000
H 	H 	0.17983 0.06725 0.63401 0.23400
C 	C 	0.02152 0.99206 0.81861 0.29100
C 	C 	0.03379 0.00921 0.76794 -0.17400
C 	C 	0.00792 0.01773 0.71552 0.28900
C 	C 	0.97036 0.00911 0.71342 0.28500
C 	C 	0.95834 0.99175 0.76318 -0.17700
C 	C 	0.98406 0.98329 0.81585 0.28900
F 	F 	0.97249 0.96697 0.86564 -0.35000
F 	F 	0.04557 0.98429 0.87167 -0.35000
F 	F 	0.94577 0.01738 0.66217 -0.35400
F 	F 	0.01938 0.03403 0.66555 -0.35600
C 	C 	0.28717 0.13255 0.95265 0.29300
C 	C 	0.31217 0.14403 0.90308 -0.19000
C 	C 	0.30976 0.13951 0.82607 0.28700
C 	C 	0.28304 0.12344 0.79904 0.28700
C 	C 	0.25856 0.11166 0.84864 -0.19600
C 	C 	0.26035 0.11645 0.92542 0.29700
F 	F 	0.23666 0.10518 0.97372 -0.34000
F 	F 	0.28880 0.13705 0.02705 -0.35700
F 	F 	0.28101 0.11920 0.72450 -0.36900
F 	F 	0.33414 0.15019 0.77766 -0.35800
C 	C 	0.26427 0.24741 0.05570 0.28300
C 	C 	0.28334 0.24440 0.98761 -0.17700
C 	C 	0.26378 0.24722 0.91994 0.29300
C 	C 	0.22542 0.25285 0.92033 0.29300
C 	C 	0.20631 0.25587 0.98839 -0.17700
C 	C 	0.22581 0.25303 0.05609 0.28300
F 	F 	0.20765 0.25609 0.12217 -0.36900
F 	F 	0.28285 0.24453 0.12142 -0.37000
F 	F 	0.20672 0.25529 0.85453 -0.34000
F 	F 	0.28206 0.24462 0.85375 -0.34000
C 	C 	0.94223 0.86378 0.52262 0.29200
C 	C 	0.97223 0.85746 0.56946 -0.18700
C 	C 	0.97586 0.86727 0.64080 0.28300
C 	C 	0.94984 0.88338 0.66503 0.28600
C 	C 	0.91954 0.88947 0.61868 -0.18700
C 	C 	0.91585 0.87963 0.54731 0.29100
F 	F 	0.88665 0.88542 0.50202 -0.35200
F 	F 	0.93856 0.85445 0.45339 -0.34800
F 	F 	0.95342 0.89262 0.73442 -0.36100
F 	F 	0.00506 0.86149 0.68609 -0.35900
C 	C 	0.21822 0.73388 0.50586 0.28800
C 	C 	0.20843 0.75711 0.50260 -0.17600
C 	C 	0.23744 0.77423 0.50339 0.28300
C 	C 	0.27566 0.76822 0.50156 0.28800
C 	C 	0.28538 0.74497 0.50146 -0.17800
C 	C 	0.25644 0.72790 0.50655 0.28400
F 	F 	0.26540 0.70543 0.51104 -0.35800
F 	F 	0.19079 0.71704 0.50603 -0.34700
F 	F 	0.30309 0.78501 0.49753 -0.35000
F 	F 	0.22855 0.79675 0.50503 -0.35700
C 	C 	0.23067 0.01850 0.42267 0.28600
C 	C 	0.23970 0.99523 0.41537 -0.17500
C 	C 	0.23024 0.97981 0.47337 0.28100
C 	C 	0.21338 0.98770 0.53889 0.29400
C 	C 	0.20641 0.01110 0.54774 -0.19100
C 	C 	0.21441 0.02640 0.48890 0.29100
F 	F 	0.20716 0.04903 0.49659 -0.37100
F 	F 	0.23743 0.03341 0.36562 -0.34200
F 	F 	0.20566 0.97279 0.59553 -0.35900
F 	F 	0.23880 0.95730 0.46740 -0.35500
C 	C 	0.25918 0.98262 0.92232 0.28600
C 	C 	0.25012 0.00590 0.91532 -0.17400
C 	C 	0.25951 0.02125 0.97358 0.28600
C 	C 	0.27626 0.01326 0.03911 0.29100
C 	C 	0.28321 0.98984 0.04767 -0.19500
C 	C 	0.27533 0.97463 0.98855 0.29700
F 	F 	0.28259 0.95199 0.99594 -0.36900
F 	F 	0.25253 0.96779 0.86500 -0.34000
F 	F 	0.28389 0.02809 0.09600 -0.35800
F 	F 	0.25097 0.04376 0.96789 -0.35300
C 	C 	0.23119 0.88380 0.42746 0.29800
C 	C 	0.23059 0.88971 0.35143 -0.19500
C 	C 	0.20445 0.87868 0.30322 0.28600
C 	C 	0.17867 0.86218 0.33093 0.28500
C 	C 	0.17882 0.85647 0.40720 -0.19000
C 	C 	0.20526 0.86729 0.45537 0.29600
F 	F 	0.20595 0.86171 0.52902 -0.34200
F 	F 	0.25645 0.89434 0.47445 -0.33800
F 	F 	0.15284 0.85212 0.28403 -0.36500
F 	F 	0.20420 0.88392 0.22927 -0.37000
C 	C 	0.78080 0.00943 0.44531 0.28700
C 	C 	0.74634 0.99995 0.41731 -0.17000
C 	C 	0.72919 0.98099 0.45391 0.28300
C 	C 	0.74501 0.97253 0.51974 0.28600
C 	C 	0.77718 0.98355 0.55184 -0.17900
C 	C 	0.79572 0.00158 0.51282 0.28600
F 	F 	0.82757 0.01196 0.54123 -0.35400
F 	F 	0.79980 0.02634 0.40734 -0.34700
F 	F 	0.72870 0.95377 0.55294 -0.36300
F 	F 	0.69647 0.97120 0.42715 -0.36300
C 	C 	0.72795 0.98925 0.05628 0.29200
C 	C 	0.71278 0.01124 0.05765 -0.19100
C 	C 	0.71425 0.02495 0.99318 0.29500
C 	C 	0.73133 0.01682 0.92795 0.28900
C 	C 	0.74736 0.99497 0.92714 -0.17700
C 	C 	0.74530 0.98119 0.99153 0.29400
F 	F 	0.76098 0.96015 0.99179 -0.35200
F 	F 	0.72685 0.97596 0.11859 -0.35700
F 	F 	0.73181 0.03002 0.86543 -0.34800
F 	F 	0.69965 0.04626 0.99410 -0.37100
C 	C 	0.54267 0.10336 0.08381 0.29100
C 	C 	0.57460 0.11239 0.12207 -0.17900
C 	C 	0.57843 0.13627 0.13302 0.28500
C 	C 	0.55102 0.15092 0.10509 0.29100
C 	C 	0.51879 0.14186 0.06782 -0.17600
C 	C 	0.51470 0.11796 0.05776 0.28200
F 	F 	0.48322 0.10884 0.02387 -0.37500
F 	F 	0.53891 0.08046 0.07103 -0.35200
F 	F 	0.55604 0.17394 0.11360 -0.34500
F 	F 	0.60846 0.14526 0.17190 -0.37000
C 	C 	0.50573 0.01760 0.31586 0.29200
C 	C 	0.53149 0.00904 0.26343 -0.17600
C 	C 	0.51939 0.99172 0.21356 0.29100
C 	C 	0.48177 0.98318 0.21549 0.28700
C 	C 	0.45589 0.99174 0.26782 -0.17100
C 	C 	0.46819 0.00892 0.31841 0.28700
F 	F 	0.44411 0.01678 0.37128 -0.35200
F 	F 	0.51734 0.03387 0.36576 -0.35500
F 	F 	0.47027 0.96689 0.16554 -0.35500
F 	F 	0.54400 0.98335 0.16253 -0.35600
C 	C 	0.98603 0.25466 0.87012 0.28200
C 	C 	0.02472 0.24938 0.86651 -0.17700
C 	C 	0.03760 0.23498 0.80939 0.28900
C 	C 	0.01246 0.22690 0.75421 0.29000
C 	C 	0.97414 0.23311 0.75557 -0.17800
C 	C 	0.96080 0.24651 0.81503 0.29200
F 	F 	0.92345 0.25168 0.81931 -0.34900
F 	F 	0.97314 0.26838 0.92542 -0.36700
F 	F 	0.02565 0.21373 0.69777 -0.35700
F 	F 	0.07466 0.22906 0.80687 -0.34600
C 	C 	0.00919 0.27692 0.31309 0.29300
C 	C 	0.01671 0.26345 0.24983 -0.17300
C 	C 	0.99969 0.24148 0.24334 0.28100
C 	C 	0.97478 0.23321 0.29856 0.28800
C 	C 	0.96654 0.24682 0.36100 -0.18500
C 	C 	0.98421 0.26862 0.36850 0.28900
F 	F 	0.97643 0.28199 0.42840 -0.35700
F 	F 	0.02631 0.29793 0.32125 -0.34100
F 	F 	0.95852 0.21194 0.29129 -0.37500
F 	F 	0.00671 0.22831 0.18254 -0.36200
C 	C 	0.01340 0.13171 0.64412 0.29100
C 	C 	0.01547 0.14110 0.57198 -0.17800
C 	C 	0.04465 0.13467 0.52333 0.29400
C 	C 	0.07183 0.11918 0.54705 0.29400
C 	C 	0.06979 0.10983 0.61933 -0.17800
C 	C 	0.04024 0.11597 0.66745 0.28900
F 	F 	0.03817 0.10713 0.73759 -0.36200
F 	F 	0.98497 0.13758 0.69118 -0.36400
F 	F 	0.10021 0.11328 0.49995 -0.34300
F 	F 	0.04684 0.14361 0.45334 -0.34600
C 	C 	0.78015 0.12219 0.31335 0.28800
C 	C 	0.75503 0.11118 0.36358 -0.19700
C 	C 	0.75528 0.11752 0.43922 0.29700
C 	C 	0.78141 0.13426 0.46493 0.29500
C 	C 	0.80721 0.14487 0.41491 -0.18600
C 	C 	0.80614 0.13892 0.33885 0.28600
F 	F 	0.83118 0.14883 0.29006 -0.35900
F 	F 	0.77945 0.11654 0.23972 -0.37400
F 	F 	0.78169 0.14019 0.53832 -0.34400
F 	F 	0.73076 0.10715 0.48800 -0.35200
C 	C 	0.49065 0.25866 0.24051 0.28800
C 	C 	0.47344 0.23675 0.24727 -0.17500
C 	C 	0.48084 0.22333 0.31071 0.29400
C 	C 	0.50583 0.23164 0.36609 0.29200
C 	C 	0.52364 0.25340 0.35839 -0.18300
C 	C 	0.51557 0.26695 0.29570 0.28800
F 	F 	0.53198 0.28817 0.28819 -0.37400
F 	F 	0.48377 0.27178 0.17952 -0.36200
F 	F 	0.51348 0.21832 0.42619 -0.35800
F 	F 	0.46356 0.20238 0.31910 -0.34900
C 	C 	0.50363 0.24604 0.86784 0.28500
C 	C 	0.46497 0.25142 0.86429 -0.18000
C 	C 	0.45216 0.26582 0.80712 0.29000
C 	C 	0.47732 0.27380 0.75181 0.28700
C 	C 	0.51560 0.26750 0.75312 -0.17500
C 	C 	0.52888 0.25410 0.81264 0.29000
F 	F 	0.56620 0.24884 0.81688 -0.35000
F 	F 	0.51646 0.23232 0.92319 -0.36500
F 	F 	0.46418 0.28697 0.69532 -0.35700
F 	F 	0.41514 0.27182 0.80462 -0.34700
C 	C 	0.71627 0.23309 0.50946 0.28900
C 	C 	0.70651 0.25632 0.50666 -0.17600
C 	C 	0.73546 0.27344 0.50968 0.28400
C 	C 	0.77370 0.26747 0.50901 0.28900
C 	C 	0.78346 0.24423 0.50777 -0.17700
C 	C 	0.75450 0.22712 0.51123 0.28500
F 	F 	0.76347 0.20463 0.51481 -0.35800
F 	F 	0.68885 0.21625 0.50783 -0.34900
F 	F 	0.80114 0.28428 0.50692 -0.34900
F 	F 	0.72649 0.29595 0.51187 -0.35800
C 	C 	0.47694 0.36783 0.64398 0.28700
C 	C 	0.47486 0.35929 0.57072 -0.18100
C 	C 	0.44600 0.36655 0.52262 0.29200
C 	C 	0.41916 0.38202 0.54800 0.29200
C 	C 	0.42122 0.39051 0.62138 -0.18500
C 	C 	0.45044 0.38354 0.66898 0.28500
F 	F 	0.45250 0.39154 0.74018 -0.36200
F 	F 	0.50504 0.36114 0.69056 -0.36300
F 	F 	0.39105 0.38870 0.50145 -0.34500
F 	F 	0.44376 0.35841 0.45161 -0.34700
C 	C 	0.23109 0.38347 0.93008 0.29700
C 	C 	0.23306 0.38837 0.85339 -0.19700
C 	C 	0.20845 0.37683 0.80349 0.28700
C 	C 	0.18137 0.36092 0.83013 0.28700
C 	C 	0.17875 0.35631 0.90707 -0.19000
C 	C 	0.20393 0.36752 0.95693 0.29200
F 	F 	0.20214 0.36289 0.03124 -0.35500
F 	F 	0.25491 0.39451 0.97868 -0.33900
F 	F 	0.15684 0.35050 0.78143 -0.35700
F 	F 	0.21065 0.38118 0.72903 -0.36900
C 	C 	0.53947 0.61595 0.66912 0.28900
C 	C 	0.56946 0.60962 0.62232 -0.18000
C 	C 	0.57263 0.61911 0.55035 0.29100
C 	C 	0.54623 0.63495 0.52571 0.29300
C 	C 	0.51667 0.64159 0.57311 -0.18600
C 	C 	0.51340 0.63203 0.64488 0.28700
F 	F 	0.48457 0.63809 0.69067 -0.35900
F 	F 	0.53632 0.60702 0.73901 -0.35800
F 	F 	0.54948 0.64398 0.45598 -0.35000
F 	F 	0.60143 0.61303 0.50449 -0.34600
C 	C 	0.50666 0.51745 0.72513 0.28600
C 	C 	0.53346 0.50850 0.77487 -0.17300
C 	C 	0.52213 0.49084 0.82449 0.28700
C 	C 	0.48466 0.48204 0.82341 0.29300
C 	C 	0.45801 0.49097 0.77352 -0.17900
C 	C 	0.46911 0.50881 0.72479 0.28700
F 	F 	0.44358 0.51756 0.67629 -0.36200
F 	F 	0.51719 0.53422 0.67607 -0.35600
F 	F 	0.47403 0.46521 0.87217 -0.34800
F 	F 	0.54713 0.48260 0.87501 -0.35100
C 	C 	0.23292 0.51718 0.93065 0.28500
C 	C 	0.24231 0.49396 0.92364 -0.17500
C 	C 	0.23314 0.47856 0.98189 0.28500
C 	C 	0.21623 0.48645 0.04738 0.29200
C 	C 	0.20889 0.50982 0.05590 -0.19500
C 	C 	0.21659 0.52508 0.99682 0.29900
F 	F 	0.20897 0.54767 0.00419 -0.37500
F 	F 	0.23939 0.53204 0.87335 -0.34000
F 	F 	0.20879 0.47158 0.10425 -0.35500
F 	F 	0.24201 0.45610 0.97617 -0.35200
C 	C 	0.26054 0.52072 0.48220 0.28100
C 	C 	0.25173 0.50533 0.42375 -0.17600
C 	C 	0.26173 0.48220 0.43036 0.28600
C 	C 	0.27829 0.47437 0.49638 0.29000
C 	C 	0.28558 0.48960 0.55573 -0.18900
C 	C 	0.27766 0.51289 0.54755 0.29500
F 	F 	0.28472 0.52775 0.60465 -0.35500
F 	F 	0.25111 0.54309 0.47681 -0.35500
F 	F 	0.28647 0.45185 0.50341 -0.37200
F 	F 	0.25561 0.46737 0.37284 -0.34200
C 	C 	0.28350 0.63432 0.45903 0.29600
C 	C 	0.31039 0.64476 0.41094 -0.18800
C 	C 	0.31115 0.63852 0.33515 0.28500
C 	C 	0.28560 0.62182 0.30787 0.28700
C 	C 	0.25910 0.61111 0.35607 -0.19400
C 	C 	0.25782 0.61759 0.43156 0.29900
F 	F 	0.23217 0.60740 0.47851 -0.33800
F 	F 	0.28219 0.64044 0.53218 -0.33900
F 	F 	0.28645 0.61605 0.23436 -0.36800
F 	F 	0.33740 0.64820 0.28835 -0.35900
C 	C 	0.73674 0.48077 0.48838 0.28000
C 	C 	0.74530 0.49591 0.42911 -0.17400
C 	C 	0.73570 0.51912 0.43521 0.28500
C 	C 	0.71930 0.52722 0.50108 0.29100
C 	C 	0.71170 0.51216 0.56073 -0.19200
C 	C 	0.71976 0.48885 0.55356 0.29400
F 	F 	0.71262 0.47419 0.61116 -0.35900
F 	F 	0.74604 0.45836 0.48374 -0.35400
F 	F 	0.71121 0.54978 0.50733 -0.37400
F 	F 	0.74187 0.53377 0.37720 -0.34300
C 	C 	0.76872 0.51377 0.05761 0.29200
C 	C 	0.78233 0.49141 0.06086 -0.19400
C 	C 	0.77998 0.47727 0.99745 0.29600
C 	C 	0.76306 0.48521 0.93185 0.28800
C 	C 	0.74797 0.50730 0.92960 -0.17400
C 	C 	0.75142 0.52165 0.99250 0.29300
F 	F 	0.73668 0.54294 0.99140 -0.35000
F 	F 	0.77080 0.52753 0.11879 -0.35500
F 	F 	0.76155 0.47151 0.87050 -0.34000
F 	F 	0.79335 0.45566 0.99995 -0.36800
C 	C 	0.70915 0.37812 0.30850 0.28600
C 	C 	0.73451 0.38915 0.35825 -0.19700
C 	C 	0.73435 0.38298 0.43406 0.29900
C 	C 	0.70822 0.36632 0.46034 0.29500
C 	C 	0.68231 0.35563 0.41074 -0.18700
C 	C 	0.68316 0.36147 0.33458 0.28500
F 	F 	0.65796 0.35150 0.28622 -0.35900
F 	F 	0.70970 0.38362 0.23475 -0.37200
F 	F 	0.70809 0.36054 0.53384 -0.34100
F 	F 	0.75898 0.39345 0.48245 -0.33900
C 	C 	0.97528 0.36812 0.14506 0.28300
C 	C 	0.97184 0.35840 0.07354 -0.18400
C 	C 	0.94216 0.36494 0.02626 0.28800
C 	C 	0.91596 0.38095 0.05058 0.29200
C 	C 	0.91941 0.39068 0.12217 -0.18100
C 	C 	0.94938 0.38436 0.16901 0.28900
F 	F 	0.95277 0.39350 0.23857 -0.36000
F 	F 	0.00421 0.36216 0.19078 -0.35700
F 	F 	0.88717 0.38702 0.00469 -0.34400
F 	F 	0.93861 0.35568 0.95691 -0.34200
C 	C 	0.98643 0.48170 0.22651 0.28300
C 	C 	0.95997 0.49071 0.27686 -0.17000
C 	C 	0.97190 0.50800 0.32734 0.28300
C 	C 	0.00953 0.51654 0.32609 0.29600
C 	C 	0.03577 0.50768 0.27520 -0.18000
C 	C 	0.02417 0.49007 0.22601 0.29100
F 	F 	0.04932 0.48135 0.17670 -0.36200
F 	F 	0.97538 0.46522 0.17685 -0.35500
F 	F 	0.02068 0.53307 0.37546 -0.34900
F 	F 	0.94729 0.51620 0.37867 -0.35200
C 	C 	0.99783 0.73984 0.73687 0.28200
C 	C 	0.01420 0.76196 0.74443 -0.17400
C 	C 	0.00601 0.77513 0.80799 0.29300
C 	C 	0.98139 0.76627 0.86310 0.28900
C 	C 	0.96476 0.74421 0.85505 -0.18200
C 	C 	0.97329 0.73100 0.79186 0.29000
F 	F 	0.95801 0.70950 0.78405 -0.37300
F 	F 	0.00541 0.72700 0.67561 -0.36100
F 	F 	0.97311 0.77931 0.92352 -0.35900
F 	F 	0.02231 0.79632 0.81694 -0.34200
C 	C 	0.96285 0.74756 0.31025 0.29200
C 	C 	0.97593 0.73371 0.25172 -0.17900
C 	C 	0.01405 0.72709 0.25103 0.29000
C 	C 	0.03919 0.73496 0.30649 0.28900
C 	C 	0.02651 0.74954 0.36323 -0.18000
C 	C 	0.98808 0.75547 0.36569 0.28200
F 	F 	0.97545 0.76950 0.42040 -0.36800
F 	F 	0.92572 0.75328 0.31355 -0.34800
F 	F 	0.07602 0.72856 0.30480 -0.35000
F 	F 	0.02701 0.71358 0.19523 -0.35900
C 	C 	0.04606 0.63280 0.02773 0.28600
C 	C 	0.01784 0.64010 0.07719 -0.17700
C 	C 	0.01661 0.63155 0.15050 0.28900
C 	C 	0.04319 0.61569 0.17403 0.28600
C 	C 	0.07166 0.60859 0.12491 -0.18700
C 	C 	0.07299 0.61719 0.05163 0.29400
F 	F 	0.10046 0.61044 0.00371 -0.34600
F 	F 	0.04747 0.64095 0.95666 -0.34400
F 	F 	0.04191 0.60764 0.24522 -0.36200
F 	F 	0.98910 0.63826 0.19841 -0.36300
C 	C 	0.77167 0.64988 0.90941 0.29100
C 	C 	0.80546 0.64173 0.94037 -0.18700
C 	C 	0.81007 0.61794 0.94799 0.28600
C 	C 	0.78250 0.60255 0.91995 0.29400
C 	C 	0.75036 0.61072 0.88289 -0.18400
C 	C 	0.74435 0.63446 0.88031 0.28500
F 	F 	0.71301 0.64266 0.84623 -0.37800
F 	F 	0.76570 0.67277 0.90603 -0.35300
F 	F 	0.78767 0.57964 0.92635 -0.33900
F 	F 	0.84215 0.60971 0.97917 -0.37800
C 	C 	0.51315 0.77581 0.30924 0.29100
C 	C 	0.51934 0.76252 0.24494 -0.17600
C 	C 	0.50111 0.74090 0.23791 0.28500
C 	C 	0.47619 0.73288 0.29348 0.28600
C 	C 	0.46903 0.74643 0.35663 -0.18400
C 	C 	0.48806 0.76780 0.36479 0.29000
F 	F 	0.48143 0.78109 0.42549 -0.34700
F 	F 	0.53164 0.79637 0.31818 -0.34100
F 	F 	0.45885 0.71192 0.28584 -0.37300
F 	F 	0.50686 0.72789 0.17620 -0.35600
C 	C 	0.51234 0.73472 0.85946 0.28900
C 	C 	0.52950 0.75665 0.85125 -0.18100
C 	C 	0.52121 0.76990 0.78801 0.28800
C 	C 	0.49643 0.76123 0.73311 0.28500
C 	C 	0.47948 0.73927 0.74092 -0.17700
C 	C 	0.48740 0.72607 0.80458 0.29100
F 	F 	0.47050 0.70505 0.81388 -0.34100
F 	F 	0.52039 0.72162 0.91987 -0.35000
F 	F 	0.48919 0.77410 0.67173 -0.35600
F 	F 	0.53688 0.79130 0.78011 -0.37000
C 	C 	0.68324 0.88340 0.95338 0.28600
C 	C 	0.68714 0.85964 0.94338 -0.18600
C 	C 	0.72075 0.85142 0.91189 0.29000
C 	C 	0.74835 0.86680 0.88365 0.28600
C 	C 	0.74280 0.89057 0.88772 -0.18400
C 	C 	0.71113 0.89875 0.92628 0.29500
F 	F 	0.70661 0.92166 0.93468 -0.33700
F 	F 	0.65150 0.89168 0.98576 -0.37100
F 	F 	0.77942 0.85858 0.84869 -0.37700
F 	F 	0.72620 0.82850 0.90681 -0.34900
C 	C 	0.44447 0.86524 0.02792 0.28700
C 	C 	0.47319 0.85861 0.07732 -0.18300
C 	C 	0.47464 0.86775 0.14985 0.28600
C 	C 	0.44793 0.88365 0.17250 0.28900
C 	C 	0.41911 0.89020 0.12329 -0.18100
C 	C 	0.41743 0.88090 0.05094 0.29300
F 	F 	0.38962 0.88710 0.00295 -0.34600
F 	F 	0.44284 0.85651 0.95760 -0.34600
F 	F 	0.44950 0.89234 0.24288 -0.36100
F 	F 	0.50259 0.86166 0.19771 -0.35600
C 	C 	0.73167 0.75826 0.92094 0.30100
C 	C 	0.70984 0.75809 0.98674 -0.17000
C 	C 	0.72635 0.75141 0.05454 0.28400
C 	C 	0.76442 0.74500 0.05650 0.28600
C 	C 	0.78609 0.74509 0.99065 -0.17300
C 	C 	0.76963 0.75183 0.92296 0.30200
F 	F 	0.79038 0.75190 0.85896 -0.33900
F 	F 	0.71588 0.76434 0.85483 -0.33400
F 	F 	0.78007 0.73834 0.12211 -0.36800
F 	F 	0.70566 0.75143 0.11859 -0.37000
