data_crystal

_cell_length_a 21.91244
_cell_length_b 23.05436
_cell_length_c 80.35611
_cell_angle_alpha 90.04850
_cell_angle_beta  90.02240
_cell_angle_gamma 119.52972

_symmetry_space_group_name_	'P 1'
_symmetry_space_group_name_H-M	'P 1'

loop_
_symmetry_equiv_pos_as_xyz
  x,y,z

loop_
_atom_site_label
_atom_site_type_symbol
_atom_site_fract_x
_atom_site_fract_y
_atom_site_fract_z
_atom_site_charge
C 	C 	0.78657 0.38128 0.59270 0.33500
C 	C 	0.58626 0.19333 0.54252 0.31300
C 	C 	0.78649 0.39266 0.54446 0.30100
C 	C 	0.57821 0.19261 0.58917 0.32400
C 	C 	0.59751 0.40853 0.54577 0.30600
C 	C 	0.56399 0.38991 0.58456 0.31400
Ni	Ni	0.70192 0.27602 0.56672 1.12000
Ni	Ni	0.55701 0.28081 0.56398 1.12500
Ni	Ni	0.70299 0.41735 0.56994 1.12800
O 	O 	0.78914 0.34498 0.58027 -0.35000
O 	O 	0.75413 0.41674 0.59102 -0.34000
O 	O 	0.54904 0.34647 0.54884 -0.37400
O 	O 	0.62940 0.19272 0.55366 -0.36400
O 	O 	0.56907 0.24028 0.54263 -0.37200
O 	O 	0.63332 0.42918 0.58428 -0.34200
O 	O 	0.74658 0.32729 0.54474 -0.36400
O 	O 	0.78893 0.42857 0.55745 -0.35800
O 	O 	0.53497 0.32405 0.58308 -0.35500
O 	O 	0.64726 0.21913 0.58718 -0.33600
O 	O 	0.53751 0.19755 0.57748 -0.34500
O 	O 	0.66453 0.42905 0.54825 -0.38100
O 	O 	0.65271 0.32287 0.57039 -0.72100
H 	H 	0.64627 0.31887 0.58256 0.16600
C 	C 	0.38229 0.79048 0.41601 0.32800
C 	C 	0.20373 0.60831 0.46875 0.31000
C 	C 	0.39580 0.81082 0.46227 0.31500
C 	C 	0.19418 0.58051 0.42160 0.32700
C 	C 	0.41110 0.62793 0.46962 0.31500
C 	C 	0.41811 0.60599 0.42395 0.33200
Ni	Ni	0.27515 0.70862 0.44201 1.12000
Ni	Ni	0.29380 0.57903 0.44637 1.12700
Ni	Ni	0.42898 0.72220 0.44223 1.12600
O 	O 	0.31427 0.75364 0.41932 -0.34800
O 	O 	0.43189 0.79426 0.42648 -0.34400
O 	O 	0.34288 0.60218 0.46841 -0.38600
O 	O 	0.24161 0.67247 0.46587 -0.36800
O 	O 	0.20585 0.56516 0.45842 -0.36000
O 	O 	0.44295 0.67164 0.42360 -0.35400
O 	O 	0.34662 0.80144 0.45158 -0.36200
O 	O 	0.42194 0.77040 0.46267 -0.37800
O 	O 	0.36978 0.56627 0.43499 -0.35500
O 	O 	0.18994 0.62467 0.43152 -0.34600
O 	O 	0.23204 0.55198 0.42585 -0.34300
O 	O 	0.45303 0.66772 0.45794 -0.36600
O 	O 	0.33098 0.66868 0.43936 -0.72700
H 	H 	0.32942 0.66262 0.42719 0.17400
C 	C 	0.22368 0.73462 0.69014 0.33200
C 	C 	0.34523 0.61574 0.64316 0.35100
C 	C 	0.15480 0.56321 0.67458 0.34600
C 	C 	0.41792 0.79705 0.65585 0.32000
C 	C 	0.33214 0.55158 0.69396 0.35000
C 	C 	0.42738 0.73043 0.70869 0.33700
Ni	Ni	0.27193 0.68298 0.65942 1.12400
Ni	Ni	0.40582 0.67748 0.67482 1.13600
Ni	Ni	0.27473 0.64110 0.69791 1.13300
O 	O 	0.21180 0.71277 0.67431 -0.32500
O 	O 	0.26316 0.72205 0.70039 -0.34300
O 	O 	0.39324 0.60469 0.69093 -0.34200
O 	O 	0.31941 0.65576 0.64040 -0.33100
O 	O 	0.35552 0.60327 0.65833 -0.35800
O 	O 	0.36323 0.68081 0.71254 -0.34100
O 	O 	0.19884 0.58367 0.66216 -0.35100
O 	O 	0.17350 0.59332 0.68914 -0.33700
O 	O 	0.45004 0.74372 0.69315 -0.35500
O 	O 	0.35054 0.77910 0.65471 -0.33600
O 	O 	0.43883 0.75161 0.65704 -0.33000
O 	O 	0.27445 0.55534 0.69409 -0.36200
O 	O 	0.32374 0.68351 0.67815 -0.72100
H 	H 	0.34511 0.73068 0.68144 0.17700
C 	C 	0.07342 0.17108 0.75868 0.32200
C 	C 	0.92131 0.03254 0.81913 0.32000
C 	C 	0.12425 0.20864 0.80374 0.31100
C 	C 	0.86222 0.98569 0.77479 0.31400
C 	C 	0.10402 0.00804 0.81078 0.36600
C 	C 	0.06561 0.97521 0.76476 0.32000
Ni	Ni	0.98162 0.11791 0.78898 1.10800
Ni	Ni	0.97376 0.97435 0.79328 1.11000
Ni	Ni	0.11842 0.10089 0.78352 1.13000
O 	O 	0.00901 0.15028 0.76448 -0.31800
O 	O 	0.12423 0.17550 0.76860 -0.35900
O 	O 	0.03814 0.99235 0.81273 -0.39600
O 	O 	0.96413 0.09363 0.81409 -0.37400
O 	O 	0.90570 0.98146 0.80928 -0.37500
O 	O 	0.10514 0.04115 0.76416 -0.33500
O 	O 	0.07162 0.20654 0.79539 -0.34500
O 	O 	0.13342 0.15669 0.80410 -0.37200
O 	O 	0.02799 0.94373 0.77824 -0.34800
O 	O 	0.87983 0.04139 0.78330 -0.33600
O 	O 	0.89847 0.95340 0.77592 -0.35200
O 	O 	0.13874 0.03936 0.79732 -0.36900
O 	O 	0.01959 0.06208 0.78478 -0.70600
H 	H 	0.00729 0.05188 0.77294 0.18000
C 	C 	0.42413 0.73380 0.93244 0.32300
C 	C 	0.38721 0.61935 0.86470 0.31000
C 	C 	0.51087 0.81652 0.88986 0.30800
C 	C 	0.31162 0.53631 0.90493 0.33300
C 	C 	0.30493 0.76077 0.87081 0.31300
C 	C 	0.21439 0.67250 0.90969 0.33100
Ni	Ni	0.43514 0.67287 0.89934 1.12200
Ni	Ni	0.28146 0.63074 0.88414 1.12600
Ni	Ni	0.36768 0.76939 0.90312 1.12700
O 	O 	0.46694 0.72703 0.92179 -0.34000
O 	O 	0.38076 0.75498 0.92739 -0.33900
O 	O 	0.25902 0.69747 0.87340 -0.36200
O 	O 	0.42031 0.61570 0.87796 -0.34700
O 	O 	0.35092 0.65036 0.86559 -0.38000
O 	O 	0.26309 0.73498 0.90616 -0.36100
O 	O 	0.49654 0.75677 0.88518 -0.36100
O 	O 	0.47452 0.82434 0.90179 -0.35900
O 	O 	0.21304 0.62040 0.90217 -0.34600
O 	O 	0.37313 0.58230 0.91090 -0.33800
O 	O 	0.28482 0.54599 0.89093 -0.35700
O 	O 	0.36423 0.78971 0.87907 -0.38600
O 	O 	0.35517 0.68302 0.89915 -0.72100
H 	H 	0.33266 0.66061 0.90964 0.17200
C 	C 	0.78933 0.47816 0.07986 0.33500
C 	C 	0.56063 0.27560 0.12315 0.30900
C 	C 	0.78105 0.45312 0.12542 0.30900
C 	C 	0.55255 0.30268 0.07826 0.33500
C 	C 	0.74406 0.24976 0.11932 0.31000
C 	C 	0.73976 0.26546 0.07139 0.33000
Ni	Ni	0.66042 0.39540 0.10265 1.12100
Ni	Ni	0.63475 0.24619 0.09685 1.12700
Ni	Ni	0.79103 0.36835 0.09865 1.12900
O 	O 	0.74578 0.47874 0.09143 -0.35300
O 	O 	0.80912 0.43211 0.07964 -0.34800
O 	O 	0.69850 0.21628 0.10746 -0.36400
O 	O 	0.56836 0.32802 0.11489 -0.35000
O 	O 	0.60191 0.25065 0.12014 -0.37700
O 	O 	0.78750 0.29648 0.08326 -0.35700
O 	O 	0.71327 0.41402 0.12500 -0.37300
O 	O 	0.82043 0.44955 0.11359 -0.35500
O 	O 	0.67139 0.23698 0.07460 -0.34700
O 	O 	0.59955 0.36581 0.08131 -0.33700
O 	O 	0.55154 0.25209 0.08667 -0.35300
O 	O 	0.77784 0.31518 0.11935 -0.37900
O 	O 	0.69435 0.33974 0.09536 -0.72400
H 	H 	0.69356 0.34539 0.08323 0.17600
C 	C 	0.93480 0.84529 0.19997 0.26900
C 	C 	0.14630 0.04212 0.24441 0.36400
C 	C 	0.92493 0.84614 0.24591 0.34300
C 	C 	0.14408 0.04436 0.19916 0.30100
C 	C 	0.94636 0.04478 0.24711 0.32700
C 	C 	0.93226 0.04108 0.19894 0.30500
Ni	Ni	0.05199 0.92902 0.22378 1.13100
Ni	Ni	0.05411 0.07061 0.22205 1.13300
Ni	Ni	0.90756 0.93502 0.22286 1.12000
O 	O 	0.00270 0.87068 0.20318 -0.33300
O 	O 	0.89160 0.84988 0.21092 -0.36200
O 	O 	0.01410 0.07125 0.24444 -0.33600
O 	O 	0.09373 0.98167 0.24543 -0.35100
O 	O 	0.14322 0.08472 0.23400 -0.35400
O 	O 	0.89753 0.97581 0.20175 -0.39300
O 	O 	0.97863 0.84835 0.23796 -0.34000
O 	O 	0.91262 0.89607 0.24488 -0.37000
O 	O 	0.98015 0.08360 0.20965 -0.37000
O 	O 	0.14008 0.99868 0.21002 -0.35600
O 	O 	0.10622 0.07478 0.20090 -0.36600
O 	O 	0.90044 0.00662 0.23578 -0.35100
O 	O 	0.00522 0.97638 0.21907 -0.71600
H 	H 	0.00469 0.97431 0.20682 0.15900
C 	C 	0.52300 0.17043 0.34300 0.32600
C 	C 	0.80582 0.40004 0.33964 0.35500
C 	C 	0.58764 0.35046 0.35484 0.35200
C 	C 	0.74743 0.23041 0.32338 0.32800
C 	C 	0.66272 0.42460 0.30637 0.34400
C 	C 	0.59109 0.24599 0.28920 0.32800
Ni	Ni	0.67125 0.28179 0.34692 1.12900
Ni	Ni	0.72042 0.33444 0.30934 1.13200
Ni	Ni	0.56524 0.29363 0.32111 1.13300
O 	O 	0.58791 0.18561 0.34699 -0.34000
O 	O 	0.50741 0.21642 0.33747 -0.33200
O 	O 	0.71836 0.42014 0.31043 -0.35800
O 	O 	0.74651 0.38120 0.34719 -0.34400
O 	O 	0.80606 0.37696 0.32469 -0.34400
O 	O 	0.54517 0.23299 0.30145 -0.34900
O 	O 	0.60454 0.30622 0.36012 -0.33400
O 	O 	0.58890 0.36339 0.33897 -0.35700
O 	O 	0.65447 0.30005 0.28939 -0.34600
O 	O 	0.74400 0.25285 0.33851 -0.32400
O 	O 	0.73391 0.25402 0.30961 -0.35000
O 	O 	0.60092 0.37057 0.30493 -0.34600
O 	O 	0.64685 0.28706 0.32495 -0.72300
H 	H 	0.62975 0.24078 0.32127 0.17300
C 	C 	0.91442 0.08506 0.99016 0.32000
C 	C 	0.01527 0.90921 0.96037 0.37700
C 	C 	0.83270 0.90098 0.98715 0.35500
C 	C 	0.10391 0.09812 0.96047 0.32300
C 	C 	0.99816 0.89806 0.01413 0.33300
C 	C 	0.10586 0.08501 0.01791 0.32900
Ni	Ni	0.95409 0.99797 0.96790 1.10900
Ni	Ni	0.08097 0.99974 0.98861 1.12200
Ni	Ni	0.95222 0.99507 0.00808 1.11500
O 	O 	0.89853 0.04487 0.97692 -0.32300
O 	O 	0.94613 0.07815 0.00354 -0.35000
O 	O 	0.06168 0.94342 0.00942 -0.33800
O 	O 	0.99761 0.95101 0.95383 -0.37400
O 	O 	0.03052 0.91245 0.97616 -0.35800
O 	O 	0.03988 0.04350 0.02277 -0.31800
O 	O 	0.87860 0.90531 0.97621 -0.35300
O 	O 	0.85214 0.94544 0.99910 -0.35500
O 	O 	0.12986 0.08043 0.00309 -0.34500
O 	O 	0.03807 0.08572 0.95960 -0.32200
O 	O 	0.12022 0.05384 0.96691 -0.31900
O 	O 	0.94396 0.90536 0.01077 -0.36300
O 	O 	0.00388 0.01532 0.98792 -0.69100
H 	H 	0.02859 0.06443 0.98830 0.17900
C 	C 	0.56440 0.20989 0.27347 -0.10200
C 	C 	0.54588 0.23983 0.26068 0.12700
C 	C 	0.48141 0.20215 0.25243 0.06900
C 	C 	0.43683 0.13558 0.25731 0.01800
C 	C 	0.46483 0.10272 0.26684 0.07000
C 	C 	0.53199 0.14035 0.27380 0.12400
C 	C 	0.36002 0.10613 0.25549 0.01900
C 	C 	0.32351 0.12985 0.26533 0.06800
C 	C 	0.25234 0.10803 0.26204 0.13100
C 	C 	0.21548 0.05587 0.25062 -0.11700
C 	C 	0.24985 0.02444 0.24312 0.13700
C 	C 	0.32310 0.05506 0.24385 0.06600
Br	Br	0.40923 0.00914 0.27178 -0.09700
Br	Br	0.60817 0.33109 0.25466 -0.13200
Br	Br	0.20565 0.14956 0.27306 -0.11700
Br	Br	0.37276 0.03036 0.22813 -0.14500
Br	Br	0.58237 0.09840 0.28237 -0.12000
Br	Br	0.45167 0.24205 0.23553 -0.14700
Br	Br	0.37039 0.19063 0.28349 -0.12900
Br	Br	0.19713 0.93469 0.23478 -0.21700
C 	C 	0.87680 0.78571 0.25578 -0.11100
C 	C 	0.86602 0.72193 0.25111 0.12700
C 	C 	0.82699 0.66682 0.26151 0.06600
C 	C 	0.78612 0.67131 0.27441 0.01900
C 	C 	0.78860 0.73234 0.27759 0.06700
C 	C 	0.83891 0.79055 0.26957 0.12400
C 	C 	0.74163 0.61223 0.28481 0.01900
C 	C 	0.67799 0.56033 0.27846 0.07100
C 	C 	0.64271 0.49928 0.28706 0.12700
C 	C 	0.67198 0.49070 0.30188 -0.10500
C 	C 	0.72502 0.54736 0.30991 0.12900
C 	C 	0.76367 0.60667 0.30093 0.06900
Br	Br	0.72248 0.73603 0.29280 -0.11200
Br	Br	0.89359 0.70690 0.22942 -0.17200
Br	Br	0.55101 0.43189 0.27978 -0.11500
Br	Br	0.84956 0.67760 0.31007 -0.11000
Br	Br	0.86039 0.87560 0.27886 -0.13600
Br	Br	0.83032 0.58554 0.25822 -0.13700
Br	Br	0.64026 0.57269 0.25793 -0.13100
Br	Br	0.74248 0.54368 0.33327 -0.11800
C 	C 	0.78341 0.19133 0.32149 -0.09800
C 	C 	0.74377 0.12273 0.31813 0.12300
C 	C 	0.77333 0.09134 0.30867 0.07900
C 	C 	0.84272 0.12896 0.30283 0.01900
C 	C 	0.88569 0.19419 0.30885 0.06900
C 	C 	0.85614 0.22478 0.31856 0.12600
C 	C 	0.86662 0.10446 0.28858 0.02000
C 	C 	0.90901 0.07525 0.29133 0.07500
C 	C 	0.94001 0.06093 0.27777 0.11500
C 	C 	0.92223 0.06875 0.26136 -0.10100
C 	C 	0.88053 0.09887 0.25860 0.12600
C 	C 	0.85222 0.11606 0.27220 0.06700
Br	Br	0.98335 0.24311 0.30269 -0.12500
Br	Br	0.64918 0.07274 0.32628 -0.11900
Br	Br	0.01113 0.03630 0.28173 -0.08200
Br	Br	0.79437 0.15644 0.26844 -0.13300
Br	Br	0.91443 0.31296 0.32740 -0.13700
Br	Br	0.71807 0.99848 0.30285 -0.11800
Br	Br	0.92400 0.05443 0.31367 -0.10500
Br	Br	0.86809 0.12280 0.23633 -0.16100
C 	C 	0.98832 0.84288 0.02510 -0.14200
C 	C 	0.00056 0.79217 0.01896 0.18500
C 	C 	0.97319 0.73101 0.02746 0.03400
C 	C 	0.93562 0.72139 0.04238 0.02900
C 	C 	0.92922 0.77418 0.04931 0.05900
C 	C 	0.95464 0.83452 0.04061 0.14300
C 	C 	0.90067 0.65519 0.05051 0.02100
C 	C 	0.82970 0.60984 0.04703 0.06800
C 	C 	0.79335 0.55129 0.05652 0.12600
C 	C 	0.82814 0.53775 0.06939 -0.10900
C 	C 	0.89995 0.58197 0.07245 0.13000
C 	C 	0.93625 0.64026 0.06289 0.05000
Br	Br	0.88366 0.76288 0.07057 -0.15000
Br	Br	0.05225 0.80533 0.99860 -0.12300
Br	Br	0.69588 0.48970 0.05194 -0.13300
Br	Br	0.03441 0.70082 0.06702 -0.09700
Br	Br	0.94035 0.90466 0.04960 -0.17700
Br	Br	0.98493 0.65957 0.01844 -0.11600
Br	Br	0.78214 0.62892 0.02946 -0.10700
Br	Br	0.94792 0.56432 0.09019 -0.18500
C 	C 	0.15763 0.12783 0.03042 -0.09500
C 	C 	0.18129 0.09915 0.04253 0.12300
C 	C 	0.24481 0.13901 0.05091 0.07000
C 	C 	0.28734 0.20606 0.04626 0.01800
C 	C 	0.26151 0.23581 0.03508 0.07300
C 	C 	0.19487 0.19720 0.02787 0.12500
C 	C 	0.36030 0.24364 0.05244 0.02200
C 	C 	0.37512 0.28139 0.06714 0.06800
C 	C 	0.44048 0.30523 0.07499 0.13000
C 	C 	0.49012 0.28911 0.06845 -0.10400
C 	C 	0.47709 0.25545 0.05312 0.12600
C 	C 	0.41283 0.23423 0.04491 0.06800
Br	Br	0.31894 0.32809 0.02892 -0.09800
Br	Br	0.13050 0.00459 0.04659 -0.10800
Br	Br	0.46116 0.35865 0.09488 -0.17500
Br	Br	0.39557 0.19053 0.02356 -0.10900
Br	Br	0.15413 0.23887 0.01461 -0.11200
Br	Br	0.27497 0.10144 0.06839 -0.13600
Br	Br	0.30427 0.29716 0.07698 -0.12800
Br	Br	0.54662 0.23718 0.04361 -0.12700
C 	C 	0.76217 0.24710 0.05595 -0.10500
C 	C 	0.76463 0.27953 0.04090 0.12500
C 	C 	0.78539 0.26129 0.02612 0.07200
C 	C 	0.80881 0.21432 0.02663 0.01900
C 	C 	0.80939 0.18420 0.04185 0.06600
C 	C 	0.78366 0.19874 0.05635 0.13000
C 	C 	0.83022 0.19427 0.01115 0.01800
C 	C 	0.78344 0.13339 0.00347 0.06900
C 	C 	0.80996 0.09979 0.99384 0.12400
C 	C 	0.88301 0.12849 0.99162 -0.09500
C 	C 	0.92650 0.19594 0.99569 0.10300
C 	C 	0.90101 0.22827 0.00612 0.07400
Br	Br	0.84623 0.12353 0.04281 -0.14000
Br	Br	0.74345 0.35135 0.04075 -0.13700
Br	Br	0.74697 0.01386 0.98442 -0.11300
Br	Br	0.96379 0.31597 0.01469 -0.12800
Br	Br	0.77595 0.15105 0.07666 -0.16300
Br	Br	0.78051 0.29947 0.00516 -0.10600
Br	Br	0.68406 0.09401 0.00731 -0.10300
Br	Br	0.02031 0.24308 0.98697 -0.09100
C 	C 	0.82318 0.21443 0.15706 -0.05300
C 	C 	0.82015 0.15437 0.15246 0.02800
C 	C 	0.78767 0.12325 0.13746 -0.05100
C 	C 	0.75998 0.15283 0.12693 0.02300
C 	C 	0.76514 0.21418 0.13126 -0.07300
C 	C 	0.79577 0.24415 0.14653 0.02200
C 	C 	0.84990 0.12351 0.16352 0.02800
H 	H 	0.78455 0.07655 0.13387 0.06700
H 	H 	0.73597 0.12877 0.11528 0.06900
H 	H 	0.79898 0.29084 0.15017 0.05100
H 	H 	0.84697 0.23818 0.16877 0.06400
C 	C 	0.92159 0.15783 0.16754 -0.04400
C 	C 	0.94894 0.13022 0.17879 -0.00300
C 	C 	0.90482 0.06801 0.18610 -0.06700
C 	C 	0.83337 0.03308 0.18175 0.04300
C 	C 	0.80613 0.06075 0.17054 -0.05600
H 	H 	0.95594 0.20609 0.16206 0.05700
H 	H 	0.00423 0.15736 0.18189 0.06900
H 	H 	0.79853 0.98528 0.18737 0.03900
H 	H 	0.75072 0.03398 0.16754 0.06800
C 	C 	0.32572 0.10960 0.18119 -0.04700
C 	C 	0.31994 0.13693 0.16607 0.02900
C 	C 	0.25530 0.13113 0.16148 -0.05000
C 	C 	0.19727 0.09931 0.17207 0.02100
C 	C 	0.20332 0.07281 0.18732 -0.06500
C 	C 	0.26775 0.07765 0.19174 0.02500
C 	C 	0.38194 0.17260 0.15518 0.03200
H 	H 	0.25013 0.15155 0.14977 0.06800
H 	H 	0.14784 0.09563 0.16846 0.05200
H 	H 	0.27349 0.05829 0.20356 0.07100
H 	H 	0.37541 0.11407 0.18488 0.07200
C 	C 	0.40811 0.24029 0.15151 -0.05100
C 	C 	0.46717 0.27423 0.14134 0.02800
C 	C 	0.50074 0.24079 0.13472 -0.07200
C 	C 	0.47482 0.17312 0.13855 0.02500
C 	C 	0.41570 0.13925 0.14870 -0.05200
H 	H 	0.38287 0.26667 0.15659 0.06700
H 	H 	0.48674 0.32647 0.13863 0.05800
H 	H 	0.49968 0.14643 0.13346 0.04900
H 	H 	0.39588 0.08698 0.15144 0.06700
C 	C 	0.82174 0.56588 0.16246 -0.05500
C 	C 	0.84249 0.62732 0.15464 0.03000
C 	C 	0.84763 0.63176 0.13723 -0.05300
C 	C 	0.83181 0.57537 0.12775 0.02500
C 	C 	0.80906 0.51365 0.13553 -0.07800
C 	C 	0.80430 0.50911 0.15292 0.02500
C 	C 	0.86137 0.68745 0.16469 0.02700
H 	H 	0.86327 0.67879 0.13106 0.06500
H 	H 	0.83471 0.57912 0.11430 0.06200
H 	H 	0.78633 0.46151 0.15901 0.04700
H 	H 	0.81889 0.56212 0.17591 0.06800
C 	C 	0.81566 0.68651 0.17707 -0.04800
C 	C 	0.83730 0.74060 0.18791 0.02100
C 	C 	0.90472 0.79622 0.18638 -0.06100
C 	C 	0.94755 0.79952 0.17300 0.01500
C 	C 	0.92653 0.74503 0.16240 -0.05000
H 	H 	0.76429 0.64310 0.17861 0.06400
H 	H 	0.80298 0.73782 0.19794 0.06100
H 	H 	0.99871 0.84310 0.17133 0.04300
H 	H 	0.96186 0.74671 0.15274 0.06000
C 	C 	0.75750 0.85756 0.98366 -0.11100
C 	C 	0.71133 0.81966 0.99656 0.13200
C 	C 	0.63841 0.78630 0.99379 0.07200
C 	C 	0.61233 0.78447 0.97768 0.01800
C 	C 	0.65925 0.81468 0.96437 0.06600
C 	C 	0.73079 0.85584 0.96754 0.13900
C 	C 	0.53661 0.75804 0.97488 0.02300
C 	C 	0.49576 0.69264 0.96883 0.07000
C 	C 	0.44349 0.67949 0.95693 0.12300
C 	C 	0.43690 0.73270 0.95042 -0.09600
C 	C 	0.46358 0.79203 0.95979 0.13000
C 	C 	0.51219 0.80357 0.97255 0.06600
Br	Br	0.62532 0.80033 0.94174 -0.16300
Br	Br	0.74798 0.81038 0.01762 -0.13100
Br	Br	0.37928 0.58970 0.95018 -0.13500
Br	Br	0.55148 0.88431 0.98546 -0.11600
Br	Br	0.78968 0.91581 0.95030 -0.21100
Br	Br	0.57448 0.74537 0.01209 -0.10600
Br	Br	0.51816 0.62465 0.97498 -0.10500
Br	Br	0.43593 0.85759 0.95488 -0.13600
C 	C 	0.28333 0.46766 0.91114 -0.10500
C 	C 	0.31916 0.43226 0.90769 0.13000
C 	C 	0.29934 0.37135 0.91570 0.06700
C 	C 	0.24146 0.34394 0.92655 0.02200
C 	C 	0.20411 0.37817 0.92960 0.06800
C 	C 	0.22561 0.44041 0.92205 0.12500
C 	C 	0.21760 0.27748 0.93408 0.01900
C 	C 	0.17015 0.21951 0.92540 0.07100
C 	C 	0.14058 0.15726 0.93337 0.12600
C 	C 	0.15614 0.15331 0.95022 -0.09100
C 	C 	0.21112 0.20958 0.95799 0.12200
C 	C 	0.24087 0.27214 0.95007 0.07200
Br	Br	0.12354 0.33957 0.94410 -0.10600
Br	Br	0.39490 0.46687 0.89182 -0.17700
Br	Br	0.07634 0.07756 0.92146 -0.12000
Br	Br	0.31126 0.35075 0.96130 -0.09800
Br	Br	0.17741 0.48926 0.92704 -0.13300
Br	Br	0.35172 0.32545 0.91195 -0.12800
Br	Br	0.14326 0.22598 0.90290 -0.14300
Br	Br	0.24597 0.20074 0.97928 -0.12700
C 	C 	0.15120 0.66275 0.91842 -0.09700
C 	C 	0.09507 0.65946 0.90911 0.12400
C 	C 	0.05256 0.68309 0.91609 0.09400
C 	C 	0.06672 0.70990 0.93228 0.01200
C 	C 	0.11291 0.70001 0.94255 0.07400
C 	C 	0.15509 0.67600 0.93558 0.12300
C 	C 	0.04659 0.76030 0.93700 0.05000
C 	C 	0.09189 0.82798 0.93324 0.06300
C 	C 	0.07911 0.87726 0.93997 0.12600
C 	C 	0.01938 0.85881 0.94992 -0.09100
C 	C 	0.97050 0.79078 0.95229 0.10900
C 	C 	0.98463 0.74152 0.94606 0.04500
Br	Br	0.12205 0.72427 0.96573 -0.09600
Br	Br	0.08085 0.62856 0.88640 -0.15300
Br	Br	0.14648 0.97008 0.93672 -0.15200
Br	Br	0.92063 0.64859 0.95040 -0.11500
Br	Br	0.22176 0.66583 0.94913 -0.12500
Br	Br	0.97933 0.68442 0.90311 -0.17600
Br	Br	0.17275 0.85314 0.91924 -0.15600
Br	Br	0.88523 0.76542 0.96449 -0.13400
C 	C 	0.23846 0.97424 0.83103 -0.09800
C 	C 	0.19540 0.91320 0.83892 0.05500
C 	C 	0.12248 0.88723 0.83914 -0.07300
C 	C 	0.09258 0.92031 0.83078 0.05800
C 	C 	0.13545 0.97972 0.82213 -0.13800
C 	C 	0.20871 0.00757 0.82277 0.10200
C 	C 	0.22646 0.87547 0.84649 0.02300
H 	H 	0.08890 0.84074 0.84548 0.07800
H 	H 	0.03605 0.89842 0.83053 0.04500
H 	H 	0.24250 0.05403 0.81644 0.04300
H 	H 	0.29488 0.99505 0.83096 0.07300
C 	C 	0.20728 0.81120 0.84075 -0.04700
C 	C 	0.23525 0.77471 0.84822 0.03000
C 	C 	0.28291 0.80228 0.86147 -0.07500
C 	C 	0.30369 0.86743 0.86686 0.02600
C 	C 	0.27540 0.90372 0.85944 -0.04800
H 	H 	0.17031 0.78938 0.83058 0.06900
H 	H 	0.21917 0.72471 0.84387 0.05400
H 	H 	0.33995 0.88914 0.87716 0.04500
H 	H 	0.29063 0.95335 0.86393 0.06400
C 	C 	0.26324 0.38954 0.80516 -0.05100
C 	C 	0.28232 0.39721 0.82203 0.03200
C 	C 	0.25291 0.34133 0.83257 -0.05200
C 	C 	0.20230 0.27926 0.82648 0.02700
C 	C 	0.18003 0.27276 0.80991 -0.07700
C 	C 	0.21175 0.32772 0.79916 0.02800
C 	C 	0.32394 0.46453 0.82920 0.03100
H 	H 	0.26711 0.34662 0.84562 0.07100
H 	H 	0.17886 0.23673 0.83478 0.05700
H 	H 	0.19609 0.32262 0.78621 0.06400
H 	H 	0.28641 0.43204 0.79686 0.07400
C 	C 	0.38149 0.47947 0.83955 -0.04900
C 	C 	0.40847 0.53540 0.84994 0.02900
C 	C 	0.37708 0.57585 0.85024 -0.07400
C 	C 	0.32668 0.56621 0.83811 0.02200
C 	C 	0.29971 0.51040 0.82777 -0.05100
H 	H 	0.40270 0.44587 0.84021 0.07000
H 	H 	0.45118 0.54518 0.85832 0.06600
H 	H 	0.30490 0.59934 0.83745 0.04900
H 	H 	0.25672 0.50047 0.81944 0.06600
C 	C 	0.79098 0.04126 0.84813 -0.01500
C 	C 	0.76813 0.98218 0.85724 -0.00400
C 	C 	0.80355 0.94571 0.85553 -0.03200
C 	C 	0.85793 0.96547 0.84397 -0.00600
C 	C 	0.87746 0.02187 0.83399 -0.04200
C 	C 	0.84553 0.06112 0.83657 0.00900
C 	C 	0.70208 0.95397 0.86689 0.03800
H 	H 	0.78670 0.90026 0.86257 0.05900
H 	H 	0.88269 0.93519 0.84223 0.05000
H 	H 	0.86019 0.10489 0.82899 0.05100
H 	H 	0.76460 0.07026 0.84949 0.06000
C 	C 	0.70155 0.93857 0.88382 -0.05600
C 	C 	0.63779 0.89894 0.89200 0.02500
C 	C 	0.57420 0.87428 0.88331 -0.07300
C 	C 	0.57463 0.89449 0.86683 0.02400
C 	C 	0.63826 0.93417 0.85865 -0.05800
H 	H 	0.75046 0.95451 0.89039 0.06700
H 	H 	0.63805 0.88395 0.90477 0.06300
H 	H 	0.52580 0.87606 0.86004 0.04800
H 	H 	0.63795 0.94624 0.84563 0.06500
C 	C 	0.47962 0.76154 0.72204 -0.10000
C 	C 	0.47938 0.81166 0.73203 0.12300
C 	C 	0.53786 0.85199 0.74210 0.07200
C 	C 	0.59503 0.84008 0.74271 0.01900
C 	C 	0.59223 0.78607 0.73393 0.06800
C 	C 	0.53607 0.74845 0.72314 0.12900
C 	C 	0.65955 0.88582 0.75191 0.01800
C 	C 	0.71696 0.93659 0.74326 0.07100
C 	C 	0.78377 0.96873 0.75069 0.11100
C 	C 	0.79267 0.95153 0.76694 -0.10100
C 	C 	0.73409 0.90471 0.77609 0.12400
C 	C 	0.66761 0.87175 0.76854 0.06800
Br	Br	0.66670 0.76482 0.73643 -0.12000
Br	Br	0.40031 0.82676 0.73136 -0.13100
Br	Br	0.86340 0.03553 0.73855 -0.12500
Br	Br	0.58789 0.80517 0.78070 -0.14600
Br	Br	0.53937 0.68249 0.70896 -0.13300
Br	Br	0.54079 0.92465 0.75465 -0.13300
Br	Br	0.70405 0.96048 0.72106 -0.12500
Br	Br	0.74474 0.88601 0.79896 -0.18200
C 	C 	0.09387 0.20533 0.74242 -0.09400
C 	C 	0.13525 0.19090 0.73166 0.12000
C 	C 	0.18762 0.24198 0.72206 0.07200
C 	C 	0.18786 0.30283 0.72033 0.01900
C 	C 	0.13403 0.31054 0.72779 0.06900
C 	C 	0.08975 0.26383 0.73967 0.12700
C 	C 	0.24876 0.36132 0.71277 0.02000
C 	C 	0.29559 0.41404 0.72306 0.06900
C 	C 	0.33353 0.47882 0.71649 0.12700
C 	C 	0.32865 0.48921 0.69939 -0.10500
C 	C 	0.29738 0.43377 0.68872 0.13100
C 	C 	0.25317 0.37007 0.69536 0.07100
Br	Br	0.12263 0.38585 0.72204 -0.12700
Br	Br	0.11543 0.10057 0.72887 -0.12000
Br	Br	0.38483 0.55370 0.73110 -0.14000
Br	Br	0.19460 0.29693 0.68084 -0.08800
Br	Br	0.02732 0.28219 0.75269 -0.13600
Br	Br	0.26288 0.23119 0.71302 -0.10700
Br	Br	0.30372 0.39794 0.74628 -0.15600
Br	Br	0.31443 0.44583 0.66516 -0.11700
C 	C 	0.07873 0.93616 0.75222 -0.10200
C 	C 	0.14213 0.93451 0.75265 0.12900
C 	C 	0.15968 0.90544 0.73948 0.06600
C 	C 	0.11161 0.87334 0.72644 0.01700
C 	C 	0.04788 0.87448 0.72604 0.08700
C 	C 	0.03179 0.90653 0.73885 0.14000
C 	C 	0.12394 0.83076 0.71465 0.02600
C 	C 	0.16164 0.85801 0.69983 0.07200
C 	C 	0.18945 0.82359 0.69092 0.12800
C 	C 	0.18243 0.76358 0.69732 -0.09400
C 	C 	0.14141 0.73500 0.71178 0.13400
C 	C 	0.10864 0.76668 0.71967 0.07000
Br	Br	0.98234 0.83106 0.70812 -0.13500
Br	Br	0.20365 0.96981 0.77164 -0.17400
Br	Br	0.24007 0.86041 0.67049 -0.12500
Br	Br	0.04542 0.72397 0.73803 -0.11400
Br	Br	0.94582 0.91025 0.73807 -0.16500
Br	Br	0.24945 0.90874 0.73930 -0.12300
Br	Br	0.17796 0.94381 0.69225 -0.10000
Br	Br	0.13369 0.65502 0.72155 -0.14600
C 	C 	0.56501 0.38485 0.36675 -0.10600
C 	C 	0.49496 0.37187 0.36651 0.13000
C 	C 	0.47482 0.40947 0.37659 0.06900
C 	C 	0.52586 0.46470 0.38554 0.02100
C 	C 	0.59635 0.47927 0.38532 0.07100
C 	C 	0.61518 0.43740 0.37661 0.12900
C 	C 	0.50501 0.50625 0.39557 0.02000
C 	C 	0.49383 0.55510 0.38781 0.06900
C 	C 	0.46714 0.58966 0.39708 0.12500
C 	C 	0.45561 0.57804 0.41437 -0.10400
C 	C 	0.47629 0.53592 0.42236 0.12700
C 	C 	0.49541 0.49629 0.41286 0.06700
Br	Br	0.66728 0.55773 0.39651 -0.12400
Br	Br	0.42760 0.30550 0.35161 -0.13700
Br	Br	0.44744 0.65306 0.38610 -0.12000
Br	Br	0.50606 0.42668 0.42343 -0.13800
Br	Br	0.70973 0.45245 0.37806 -0.12600
Br	Br	0.37721 0.38503 0.37830 -0.11000
Br	Br	0.51515 0.57447 0.36450 -0.10900
Br	Br	0.48731 0.53887 0.44620 -0.17800
C 	C 	0.14296 0.55133 0.40789 -0.10400
C 	C 	0.16387 0.54048 0.39207 0.12800
C 	C 	0.11734 0.52262 0.37849 0.06900
C 	C 	0.05140 0.51833 0.38055 0.03500
C 	C 	0.03253 0.53244 0.39612 0.07400
C 	C 	0.07460 0.54133 0.41004 0.12900
C 	C 	0.99658 0.48517 0.36776 0.00800
C 	C 	0.98812 0.52278 0.35506 0.06100
C 	C 	0.92650 0.49394 0.34536 0.13500
C 	C 	0.87086 0.43027 0.34951 -0.10900
C 	C 	0.87910 0.39429 0.36272 0.14000
C 	C 	0.94472 0.41862 0.37024 0.07100
Br	Br	0.94750 0.53722 0.39843 -0.14200
Br	Br	0.25444 0.54715 0.38906 -0.12600
Br	Br	0.91729 0.54232 0.32687 -0.12600
Br	Br	0.96275 0.36199 0.38470 -0.13100
Br	Br	0.03458 0.52896 0.43204 -0.15200
Br	Br	0.14258 0.50158 0.35724 -0.08800
Br	Br	0.05922 0.61423 0.35152 -0.08400
Br	Br	0.79932 0.31814 0.37238 -0.19200
C 	C 	0.40286 0.83814 0.40187 -0.10200
C 	C 	0.36061 0.81932 0.38740 0.12500
C 	C 	0.36296 0.86852 0.37669 0.06800
C 	C 	0.41857 0.93447 0.37801 0.02200
C 	C 	0.46896 0.95097 0.39068 0.06000
C 	C 	0.45682 0.90545 0.40362 0.12800
C 	C 	0.42206 0.98734 0.36682 0.01100
C 	C 	0.44371 0.99123 0.35014 0.06500
C 	C 	0.45833 0.04782 0.34067 0.13300
C 	C 	0.46604 0.10525 0.34859 -0.09700
C 	C 	0.43751 0.09924 0.36464 0.12600
C 	C 	0.41161 0.03859 0.37334 0.07900
Br	Br	0.55449 0.03566 0.39027 -0.12100
Br	Br	0.30315 0.72657 0.38168 -0.12900
Br	Br	0.46567 0.04660 0.31695 -0.11700
Br	Br	0.36399 0.02622 0.39430 -0.12600
Br	Br	0.50655 0.93870 0.42438 -0.16800
Br	Br	0.28700 0.84668 0.36134 -0.10700
Br	Br	0.46126 0.92363 0.34091 -0.10100
Br	Br	0.44062 0.17539 0.37531 -0.12300
C 	C 	0.52018 0.41883 0.59047 -0.10000
C 	C 	0.46964 0.38717 0.60319 0.12300
C 	C 	0.42617 0.41350 0.60800 0.06600
C 	C 	0.43442 0.47225 0.60055 0.01900
C 	C 	0.47928 0.49905 0.58683 0.06700
C 	C 	0.52833 0.47838 0.58330 0.11300
C 	C 	0.41335 0.51526 0.60986 0.02100
C 	C 	0.34604 0.50804 0.60777 0.07200
C 	C 	0.32492 0.54556 0.61773 0.12900
C 	C 	0.37206 0.59195 0.62937 -0.10700
C 	C 	0.44147 0.60293 0.63031 0.13300
C 	C 	0.46139 0.56377 0.62087 0.06700
Br	Br	0.47799 0.56871 0.57388 -0.15700
Br	Br	0.46792 0.31550 0.61599 -0.11800
Br	Br	0.22991 0.52948 0.61639 -0.12900
Br	Br	0.55411 0.57455 0.62358 -0.11600
Br	Br	0.61413 0.53992 0.57215 -0.18500
Br	Br	0.35747 0.37106 0.62533 -0.10200
Br	Br	0.28272 0.44619 0.59149 -0.12900
Br	Br	0.50828 0.66834 0.64548 -0.17400
C 	C 	0.83545 0.39626 0.60673 -0.11000
C 	C 	0.89541 0.45978 0.60817 0.13500
C 	C 	0.94052 0.47426 0.62191 0.04800
C 	C 	0.92204 0.42754 0.63494 0.02600
C 	C 	0.86159 0.36464 0.63350 0.06500
C 	C 	0.82359 0.34671 0.61856 0.12900
C 	C 	0.96669 0.44456 0.64997 -0.00300
C 	C 	0.01574 0.42221 0.65162 0.09200
C 	C 	0.06980 0.45243 0.66343 0.12700
C 	C 	0.08161 0.51132 0.67143 -0.10700
C 	C 	0.02761 0.52806 0.67136 0.14800
C 	C 	0.96803 0.49154 0.66133 0.04800
Br	Br	0.82959 0.30396 0.65207 -0.10500
Br	Br	0.91835 0.52502 0.59079 -0.16900
Br	Br	0.13048 0.41625 0.66795 -0.11200
Br	Br	0.89031 0.50850 0.66229 -0.12100
Br	Br	0.76847 0.25395 0.61287 -0.15200
Br	Br	0.02861 0.55672 0.62264 -0.11200
Br	Br	0.01355 0.35589 0.63662 -0.09600
Br	Br	0.03813 0.60465 0.68329 -0.12000
C 	C 	0.54480 0.14467 0.60295 -0.10100
C 	C 	0.57223 0.16320 0.61913 0.13000
C 	C 	0.56554 0.11404 0.63048 0.07000
C 	C 	0.51829 0.04641 0.62702 0.03100
C 	C 	0.47816 0.02928 0.61228 0.07300
C 	C 	0.49522 0.07721 0.59968 0.12900
C 	C 	0.51521 0.99290 0.63789 0.00900
C 	C 	0.53984 0.95081 0.63182 0.07100
C 	C 	0.51265 0.88603 0.63834 0.12500
C 	C 	0.46967 0.86768 0.65266 -0.09800
C 	C 	0.46148 0.91690 0.66111 0.12500
C 	C 	0.47750 0.97669 0.65297 0.06400
Br	Br	0.40037 0.94028 0.60940 -0.14200
Br	Br	0.61211 0.25463 0.62613 -0.13000
Br	Br	0.52816 0.82155 0.62663 -0.12300
Br	Br	0.44014 0.03129 0.66129 -0.08300
Br	Br	0.45433 0.04916 0.57785 -0.15900
Br	Br	0.62597 0.13888 0.64968 -0.09200
Br	Br	0.60785 0.98096 0.61410 -0.14100
Br	Br	0.42580 0.90080 0.68352 -0.14300
C 	C 	0.59445 0.52475 0.51295 -0.05100
C 	C 	0.52884 0.51963 0.51607 0.03200
C 	C 	0.48895 0.48227 0.52970 -0.04900
C 	C 	0.51192 0.44669 0.53942 0.03100
C 	C 	0.57671 0.45044 0.53614 -0.07000
C 	C 	0.61859 0.49070 0.52305 0.02700
C 	C 	0.49886 0.54803 0.50424 0.03300
H 	H 	0.43903 0.47918 0.53246 0.07000
H 	H 	0.47928 0.41605 0.54954 0.05100
H 	H 	0.66854 0.49381 0.52033 0.05000
H 	H 	0.62572 0.55341 0.50245 0.06400
C 	C 	0.53566 0.61611 0.50020 -0.05100
C 	C 	0.50636 0.64272 0.48918 0.03000
C 	C 	0.43968 0.60162 0.48228 -0.07300
C 	C 	0.40260 0.53380 0.48653 0.03200
C 	C 	0.43234 0.50703 0.49727 -0.05100
H 	H 	0.58675 0.64836 0.50561 0.06400
H 	H 	0.53548 0.69515 0.48600 0.04800
H 	H 	0.35163 0.50133 0.48109 0.04600
H 	H 	0.40382 0.45428 0.50013 0.06500
C 	C 	0.51796 0.02337 0.52320 -0.04100
C 	C 	0.50082 0.03396 0.50712 0.03500
C 	C 	0.50822 0.09618 0.50287 -0.05400
C 	C 	0.53429 0.14798 0.51457 0.02300
C 	C 	0.55320 0.13781 0.53055 -0.07400
C 	C 	0.54408 0.07494 0.53484 0.02300
C 	C 	0.47542 0.97984 0.49475 0.02100
H 	H 	0.49471 0.10463 0.49048 0.06900
H 	H 	0.54124 0.19624 0.51107 0.05300
H 	H 	0.55786 0.06621 0.54717 0.06800
H 	H 	0.51146 0.97521 0.52664 0.05800
C 	C 	0.51917 0.95490 0.48951 -0.05100
C 	C 	0.49313 0.89940 0.47902 0.02600
C 	C 	0.42310 0.86844 0.47363 -0.07400
C 	C 	0.37970 0.89412 0.47869 0.02600
C 	C 	0.40579 0.94958 0.48919 -0.05000
H 	H 	0.57311 0.97812 0.49373 0.05900
H 	H 	0.52750 0.88081 0.47499 0.04800
H 	H 	0.32551 0.87063 0.47465 0.05000
H 	H 	0.37153 0.96823 0.49327 0.06200
C 	C 	0.92008 0.41772 0.51125 -0.04600
C 	C 	0.95840 0.48766 0.51032 0.00800
C 	C 	0.93577 0.52559 0.51939 -0.04500
C 	C 	0.87692 0.49417 0.52970 0.01800
C 	C 	0.84083 0.42438 0.53139 -0.06700
C 	C 	0.86174 0.38621 0.52177 0.01600
C 	C 	0.02326 0.52128 0.50019 0.04700
H 	H 	0.96458 0.57952 0.51871 0.05600
H 	H 	0.86054 0.52427 0.53672 0.05300
H 	H 	0.83416 0.33237 0.52276 0.05100
H 	H 	0.93614 0.38782 0.50403 0.05600
C 	C 	0.07738 0.50610 0.50257 -0.05500
C 	C 	0.13808 0.53704 0.49281 0.02700
C 	C 	0.14586 0.58435 0.48080 -0.07200
C 	C 	0.09279 0.60108 0.47877 0.02500
C 	C 	0.03155 0.56934 0.48832 -0.03200
H 	H 	0.07220 0.46999 0.51188 0.07000
H 	H 	0.17854 0.52346 0.49440 0.04600
H 	H 	0.09778 0.63675 0.46935 0.05300
H 	H 	0.99015 0.58137 0.48631 0.04900
