data_crystal

_cell_length_a 40.04147
_cell_length_b 38.43348
_cell_length_c 19.90668
_cell_angle_alpha 91.71499
_cell_angle_beta  90.48435
_cell_angle_gamma 90.01949

_symmetry_space_group_name_	'P 1'
_symmetry_space_group_name_H-M	'P 1'

loop_
_symmetry_equiv_pos_as_xyz
  x,y,z

loop_
_atom_site_label
_atom_site_type_symbol
_atom_site_fract_x
_atom_site_fract_y
_atom_site_fract_z
_atom_site_charge
Cd	Cd	0.94849 0.85888 0.23217 1.24000
Cd	Cd	0.93560 0.90724 0.38325 1.15500
O 	O 	0.92588 0.79954 0.23049 -0.32300
O 	O 	0.95251 0.81935 0.14421 -0.35700
C 	C 	0.93977 0.79238 0.17316 0.27600
O 	O 	0.96419 0.91341 0.20717 -0.38000
O 	O 	0.97444 0.93064 0.31677 -0.47100
C 	C 	0.96990 0.93839 0.25323 0.28100
C 	C 	0.88453 0.88681 0.25927 0.30800
O 	O 	0.96315 0.85483 0.36150 -0.45400
O 	O 	0.88651 0.87770 0.19555 -0.29900
O 	O 	0.90966 0.87837 0.29634 -0.55500
C 	C 	0.99415 0.85027 0.34371 0.28500
O 	O 	0.99969 0.84911 0.27934 -0.37100
Cd	Cd	0.03278 0.89855 0.02639 1.24100
Cd	Cd	0.02534 0.95367 0.88503 1.18000
O 	O 	0.06679 0.84688 0.00351 -0.32500
O 	O 	0.04402 0.85628 0.10187 -0.36600
C 	C 	0.06030 0.83481 0.06203 0.27800
O 	O 	0.01051 0.94832 0.06986 -0.37100
O 	O 	0.98939 0.96431 0.96815 -0.43400
C 	C 	0.99912 0.97263 0.02978 0.29200
C 	C 	0.08689 0.94248 0.99364 0.30200
O 	O 	0.00818 0.89756 0.90328 -0.45000
O 	O 	0.09129 0.92948 0.05302 -0.30500
O 	O 	0.06230 0.92919 0.95854 -0.53100
C 	C 	0.97970 0.88807 0.92842 0.30100
O 	O 	0.98098 0.87916 0.99106 -0.36200
C 	C 	0.05561 0.69728 0.96839 0.11500
N 	N 	0.06870 0.66788 0.99392 -0.14600
C 	C 	0.07341 0.63934 0.95348 0.12600
N 	N 	0.06403 0.63978 0.88780 -0.14500
C 	C 	0.05054 0.66897 0.86207 0.12400
N 	N 	0.04714 0.69804 0.90206 -0.14300
C 	C 	0.99361 0.66785 0.25443 0.11900
N 	N 	0.99498 0.67397 0.32211 -0.13900
C 	C 	0.01131 0.65142 0.36222 0.12200
N 	N 	0.02484 0.62194 0.33481 -0.14400
C 	C 	0.02269 0.61530 0.26753 0.12500
N 	N 	0.00744 0.63846 0.22726 -0.14500
Cd	Cd	0.85204 0.03545 0.78544 1.23700
Cd	Cd	0.90799 0.03566 0.92322 1.18000
O 	O 	0.79206 0.03520 0.81162 -0.32500
O 	O 	0.80987 0.04143 0.70858 -0.35600
C 	C 	0.78458 0.03950 0.74893 0.27800
O 	O 	0.90278 0.04357 0.73961 -0.38900
O 	O 	0.93172 0.01878 0.82592 -0.44300
C 	C 	0.93148 0.03594 0.76961 0.26800
C 	C 	0.86193 0.09822 0.86350 0.27900
O 	O 	0.86732 0.99621 0.88706 -0.44800
O 	O 	0.84851 0.10447 0.80515 -0.32000
O 	O 	0.86556 0.06556 0.87624 -0.54400
C 	C 	0.87109 0.97032 0.84392 0.30100
O 	O 	0.86172 0.97618 0.78235 -0.36500
Cd	Cd	0.85999 0.05898 0.50088 1.23900
Cd	Cd	0.90969 0.04254 0.35685 1.17300
O 	O 	0.80180 0.07610 0.47997 -0.32300
O 	O 	0.82000 0.06532 0.58156 -0.35800
C 	C 	0.79499 0.07388 0.54323 0.27900
O 	O 	0.90786 0.03638 0.54151 -0.39000
O 	O 	0.93950 0.05249 0.45174 -0.44400
C 	C 	0.93664 0.03630 0.50894 0.27500
C 	C 	0.85044 0.99618 0.42384 0.29000
O 	O 	0.88057 0.09154 0.39477 -0.44100
O 	O 	0.83708 0.99387 0.48313 -0.31900
O 	O 	0.86312 0.02615 0.41113 -0.54400
C 	C 	0.89138 0.11634 0.43535 0.29800
O 	O 	0.88429 0.11346 0.49883 -0.36700
C 	C 	0.65277 0.07195 0.78860 0.11800
N 	N 	0.65565 0.08195 0.85447 -0.14200
C 	C 	0.62861 0.08141 0.89520 0.12800
N 	N 	0.59863 0.07068 0.86971 -0.14400
C 	C 	0.59531 0.06219 0.80322 0.12500
N 	N 	0.62239 0.06298 0.76266 -0.14500
C 	C 	0.65991 0.06600 0.50222 0.11800
N 	N 	0.65989 0.07609 0.43733 -0.14100
C 	C 	0.63269 0.07025 0.39744 0.12600
N 	N 	0.60498 0.05563 0.42344 -0.14300
C 	C 	0.60520 0.04456 0.48762 0.12500
N 	N 	0.63291 0.04931 0.52661 -0.14600
Cd	Cd	0.04984 0.14804 0.22592 1.24200
Cd	Cd	0.03383 0.10465 0.37981 1.17400
O 	O 	0.09310 0.19264 0.24105 -0.32400
O 	O 	0.07021 0.18167 0.14214 -0.36000
C 	C 	0.09121 0.20045 0.17834 0.27700
O 	O 	0.01728 0.10197 0.19479 -0.36600
O 	O 	0.99523 0.09508 0.29957 -0.43600
C 	C 	0.00282 0.08215 0.23972 0.26700
C 	C 	0.09449 0.09640 0.27088 0.29900
O 	O 	0.02816 0.16168 0.34788 -0.44800
O 	O 	0.10208 0.10475 0.20970 -0.29900
O 	O 	0.07231 0.11583 0.30017 -0.54700
C 	C 	0.00191 0.17594 0.32098 0.29600
O 	O 	0.00334 0.17999 0.25623 -0.35900
Cd	Cd	0.00867 0.19275 0.96456 1.23800
Cd	Cd	0.95706 0.14478 0.85388 1.16200
O 	O 	0.01498 0.25636 0.95718 -0.32700
O 	O 	0.03985 0.22690 0.03560 -0.36000
C 	C 	0.03706 0.25628 0.00545 0.28000
O 	O 	0.00952 0.13993 0.00754 -0.39800
O 	O 	0.99314 0.11054 0.91110 -0.45500
C 	C 	0.99809 0.11146 0.97688 0.28000
C 	C 	0.93874 0.19280 0.98608 0.30100
O 	O 	0.00039 0.18390 0.83308 -0.45100
O 	O 	0.95422 0.20404 0.04075 -0.29100
O 	O 	0.95720 0.18834 0.93376 -0.55100
C 	C 	0.03241 0.17831 0.82886 0.27100
O 	O 	0.04849 0.17789 0.88621 -0.43900
C 	C 	0.13620 0.35102 0.92484 0.11600
N 	N 	0.14559 0.34014 0.86223 -0.14300
C 	C 	0.16282 0.36177 0.82250 0.12600
N 	N 	0.17097 0.39420 0.84584 -0.14400
C 	C 	0.16066 0.40569 0.90738 0.12200
N 	N 	0.14437 0.38357 0.94780 -0.14700
C 	C 	0.13832 0.33195 0.22537 0.12000
N 	N 	0.15471 0.32489 0.28333 -0.14200
C 	C 	0.16356 0.35105 0.32720 0.12700
N 	N 	0.15737 0.38457 0.31124 -0.14500
C 	C 	0.14144 0.39195 0.25275 0.12500
N 	N 	0.13124 0.36542 0.21067 -0.14400
Cd	Cd	0.14459 0.07203 0.70999 1.23900
Cd	Cd	0.09957 0.11861 0.83824 1.18400
O 	O 	0.20572 0.07374 0.72306 -0.32800
O 	O 	0.18118 0.03881 0.64906 -0.35800
C 	C 	0.20889 0.04827 0.67935 0.27500
O 	O 	0.09121 0.05529 0.69096 -0.37500
O 	O 	0.06786 0.10154 0.74900 -0.41900
C 	C 	0.06524 0.06994 0.72155 0.28700
C 	C 	0.13660 0.04196 0.83748 0.31400
O 	O 	0.13758 0.13543 0.75831 -0.45800
O 	O 	0.14748 0.01928 0.79293 -0.30800
O 	O 	0.13567 0.07396 0.81881 -0.53600
C 	C 	0.13028 0.14549 0.69801 0.29800
O 	O 	0.13570 0.12233 0.64993 -0.36000
Cd	Cd	0.13184 0.93653 0.53778 1.23800
Cd	Cd	0.07837 0.93843 0.39243 1.16900
O 	O 	0.18867 0.91814 0.50987 -0.32800
O 	O 	0.17665 0.93794 0.61137 -0.36200
C 	C 	0.19939 0.92611 0.56990 0.27800
O 	O 	0.08389 0.96241 0.57476 -0.37700
O 	O 	0.05117 0.93818 0.49037 -0.44000
C 	C 	0.05567 0.96176 0.53894 0.27400
C 	C 	0.13514 0.99420 0.45237 0.30100
O 	O 	0.10979 0.89479 0.44112 -0.45500
O 	O 	0.15188 0.99987 0.50791 -0.30800
O 	O 	0.12460 0.96255 0.44236 -0.54100
C 	C 	0.10032 0.87355 0.48718 0.29900
O 	O 	0.10879 0.88199 0.54889 -0.36400
C 	C 	0.31434 0.96766 0.78733 0.11900
N 	N 	0.34685 0.97024 0.76914 -0.14300
C 	C 	0.37148 0.95733 0.80859 0.12600
N 	N 	0.36341 0.94221 0.86711 -0.14500
C 	C 	0.33108 0.94041 0.88679 0.12400
N 	N 	0.30660 0.95364 0.84724 -0.14500
C 	C 	0.32977 0.92354 0.49320 0.11700
N 	N 	0.32347 0.91886 0.42630 -0.14100
C 	C 	0.34857 0.92125 0.38126 0.12500
N 	N 	0.38024 0.92752 0.40342 -0.14300
C 	C 	0.38664 0.93232 0.47024 0.12500
N 	N 	0.36139 0.93009 0.51498 -0.14700
C 	C 	0.32318 0.92829 0.95494 -0.04900
C 	C 	0.34140 0.90069 0.98338 0.09400
C 	C 	0.34203 0.89741 0.05349 -0.08200
C 	C 	0.32203 0.91885 0.09480 -0.00900
C 	C 	0.29963 0.94254 0.06509 0.07400
C 	C 	0.30106 0.94774 0.99554 -0.05900
N 	N 	0.35740 0.87677 0.94361 -0.19800
H 	H 	0.35810 0.87816 0.07591 0.05300
C 	C 	0.32769 0.91940 0.16876 -0.00400
N 	N 	0.27680 0.96027 0.10294 -0.19500
H 	H 	0.28577 0.96778 0.97354 0.05000
C 	C 	0.34368 0.94829 0.19934 -0.08600
C 	C 	0.34864 0.95038 0.26923 0.10100
C 	C 	0.34075 0.92135 0.30843 -0.04900
C 	C 	0.32509 0.89222 0.27782 -0.05300
C 	C 	0.31764 0.89132 0.20856 0.06800
H 	H 	0.35104 0.96991 0.16893 0.05500
N 	N 	0.35939 0.98080 0.29861 -0.19900
H 	H 	0.31836 0.87031 0.30805 0.04800
N 	N 	0.30041 0.86383 0.18103 -0.19400
H 	H 	0.36739 0.00122 0.26915 0.08400
H 	H 	0.35739 0.98549 0.35026 0.09000
H 	H 	0.29382 0.84287 0.21045 0.08200
H 	H 	0.29253 0.86340 0.13090 0.08600
H 	H 	0.26109 0.97856 0.08110 0.08500
H 	H 	0.27347 0.95505 0.15363 0.08900
H 	H 	0.35352 0.87566 0.89164 0.08900
H 	H 	0.37223 0.85755 0.96490 0.08200
C 	C 	0.25564 0.90520 0.59988 -0.02700
C 	C 	0.23517 0.93295 0.58101 -0.09500
C 	C 	0.24998 0.96225 0.55158 0.10100
C 	C 	0.28350 0.96083 0.53244 -0.07100
C 	C 	0.30172 0.93013 0.53891 -0.02600
C 	C 	0.28904 0.90351 0.57872 0.04700
C 	C 	0.30999 0.87216 0.59410 -0.18200
H 	H 	0.24476 0.88338 0.62522 0.03600
H 	H 	0.29422 0.98224 0.50559 0.05000
C 	C 	0.22900 0.99238 0.52977 -0.21700
H 	H 	0.29931 0.85750 0.63612 0.06300
H 	H 	0.33565 0.88035 0.60925 0.06900
H 	H 	0.31130 0.85459 0.54890 0.06900
H 	H 	0.20808 0.99679 0.56475 0.10900
H 	H 	0.21899 0.98687 0.47837 0.09200
H 	H 	0.24399 0.01669 0.52946 0.07800
C 	C 	0.29532 0.01524 0.71342 -0.06600
C 	C 	0.28798 0.98424 0.74608 -0.03000
C 	C 	0.25521 0.97040 0.74123 0.05600
C 	C 	0.22947 0.99069 0.71429 -0.02800
C 	C 	0.23642 0.02326 0.68754 -0.09000
C 	C 	0.26987 0.03429 0.68249 0.08600
C 	C 	0.27835 0.06757 0.64827 -0.20000
H 	H 	0.32065 0.02524 0.71411 0.05400
H 	H 	0.20385 0.98168 0.71640 0.06000
C 	C 	0.24730 0.93447 0.76509 -0.18400
H 	H 	0.30473 0.06746 0.63142 0.06700
H 	H 	0.27461 0.09006 0.68371 0.07900
H 	H 	0.26232 0.07083 0.60308 0.07100
H 	H 	0.24279 0.93556 0.82006 0.07400
H 	H 	0.26803 0.91612 0.75342 0.07100
H 	H 	0.22451 0.92385 0.73966 0.07400
C 	C 	0.17360 0.34283 0.39671 -0.05000
C 	C 	0.19705 0.36377 0.43301 0.09900
C 	C 	0.19845 0.36229 0.50342 -0.08600
C 	C 	0.17859 0.33853 0.53730 -0.00700
C 	C 	0.15902 0.31403 0.50001 0.07100
C 	C 	0.15624 0.31677 0.43005 -0.05400
N 	N 	0.21880 0.38446 0.40056 -0.19900
H 	H 	0.21461 0.38003 0.53194 0.05300
C 	C 	0.17441 0.34304 0.61089 -0.00500
N 	N 	0.14259 0.28814 0.53115 -0.19400
H 	H 	0.13940 0.29955 0.40199 0.05400
C 	C 	0.14639 0.36112 0.63509 -0.08600
C 	C 	0.14138 0.36612 0.70431 0.10000
C 	C 	0.16539 0.35348 0.75017 -0.05100
C 	C 	0.19321 0.33497 0.72613 -0.05300
C 	C 	0.19790 0.32939 0.65673 0.06800
H 	H 	0.12829 0.37119 0.59979 0.05400
N 	N 	0.11345 0.38296 0.72640 -0.19900
H 	H 	0.21143 0.32516 0.76145 0.04500
N 	N 	0.22477 0.31080 0.63460 -0.19400
H 	H 	0.09628 0.39289 0.69210 0.08200
H 	H 	0.10808 0.38573 0.77751 0.08900
H 	H 	0.24211 0.30111 0.66882 0.08200
H 	H 	0.22853 0.30542 0.58352 0.08700
H 	H 	0.12725 0.27086 0.50357 0.08700
H 	H 	0.14581 0.28416 0.58246 0.09000
H 	H 	0.22132 0.38264 0.34840 0.09000
H 	H 	0.23491 0.40112 0.42776 0.08300
C 	C 	0.10498 0.17283 0.68993 -0.10500
C 	C 	0.10673 0.20169 0.73468 -0.03600
C 	C 	0.07886 0.20999 0.77409 0.02100
C 	C 	0.05030 0.18876 0.76807 -0.10500
C 	C 	0.04532 0.17006 0.70745 -0.03500
C 	C 	0.07298 0.16300 0.66636 0.05000
S 	S 	0.07727 0.24993 0.81902 -0.04700
S 	S 	0.06776 0.14121 0.58831 -0.07700
H 	H 	0.06691 0.10607 0.59686 0.03900
H 	H 	0.06572 0.27528 0.77781 0.04200
H 	H 	0.13043 0.21451 0.74478 0.03700
H 	H 	0.02093 0.15971 0.69444 0.02900
C 	C 	0.05783 0.31677 0.00491 -0.02400
C 	C 	0.06518 0.28114 0.00494 -0.09000
C 	C 	0.09821 0.26979 0.99029 0.09200
C 	C 	0.12246 0.29438 0.97365 -0.06900
C 	C 	0.11361 0.32911 0.96383 -0.02700
C 	C 	0.08108 0.34064 0.98089 0.04500
C 	C 	0.07031 0.37767 0.96967 -0.18300
H 	H 	0.03293 0.32553 0.01814 0.04100
H 	H 	0.14766 0.28585 0.96228 0.04900
C 	C 	0.10682 0.23151 0.98386 -0.21000
H 	H 	0.04323 0.38140 0.97925 0.06200
H 	H 	0.07493 0.38474 0.91685 0.06900
H 	H 	0.08418 0.39565 0.00431 0.07100
H 	H 	0.09271 0.21898 0.94182 0.06600
H 	H 	0.10088 0.21774 0.03003 0.08800
H 	H 	0.13385 0.22743 0.97423 0.06000
C 	C 	0.11506 0.07274 0.30994 -0.10800
C 	C 	0.12237 0.08240 0.37672 -0.05100
C 	C 	0.12860 0.05724 0.42399 0.02900
C 	C 	0.12987 0.02166 0.40328 -0.12300
C 	C 	0.12695 0.01253 0.33455 -0.04100
C 	C 	0.12038 0.03809 0.28753 0.02200
S 	S 	0.13254 0.07075 0.50914 -0.05100
S 	S 	0.12269 0.02720 0.20106 -0.03900
H 	H 	0.09384 0.01195 0.17759 0.03300
H 	H 	0.10321 0.06485 0.54158 0.02200
H 	H 	0.12034 0.10950 0.39308 0.02800
H 	H 	0.13009 0.98566 0.31764 0.00200
C 	C 	0.14777 0.27640 0.16258 -0.06500
C 	C 	0.12559 0.30298 0.18218 -0.02900
C 	C 	0.09086 0.29700 0.17586 0.05300
C 	C 	0.07916 0.26281 0.16538 -0.02200
C 	C 	0.10176 0.23514 0.15812 -0.08900
C 	C 	0.13602 0.24239 0.15017 0.08500
C 	C 	0.16052 0.21348 0.13540 -0.19900
H 	H 	0.17441 0.28148 0.16298 0.05000
H 	H 	0.05263 0.25743 0.16801 0.05200
C 	C 	0.06626 0.32644 0.18432 -0.18400
H 	H 	0.18311 0.22358 0.11045 0.06600
H 	H 	0.14923 0.19330 0.10116 0.06700
H 	H 	0.16815 0.20134 0.18305 0.07800
H 	H 	0.07303 0.34802 0.15114 0.07600
H 	H 	0.06617 0.33606 0.23747 0.07400
H 	H 	0.04052 0.31803 0.17030 0.06900
C 	C 	0.57854 0.02115 0.50923 -0.05100
C 	C 	0.55593 0.03136 0.56043 0.10000
C 	C 	0.52655 0.01204 0.56865 -0.08500
C 	C 	0.51877 0.98386 0.52480 -0.00700
C 	C 	0.54273 0.97206 0.47730 0.07000
C 	C 	0.57285 0.99026 0.47172 -0.05300
N 	N 	0.56161 0.06022 0.60015 -0.20000
H 	H 	0.50853 0.02049 0.60608 0.05400
C 	C 	0.48368 0.97185 0.52003 -0.00500
N 	N 	0.53651 0.94411 0.43541 -0.19400
H 	H 	0.59099 0.98166 0.43462 0.04500
C 	C 	0.46000 0.99343 0.49006 -0.08900
C 	C 	0.42719 0.98189 0.47911 0.09900
C 	C 	0.41886 0.94705 0.49250 -0.05500
C 	C 	0.44180 0.92612 0.52629 -0.05500
C 	C 	0.47393 0.93871 0.54237 0.06600
H 	H 	0.46708 0.01941 0.47580 0.05500
N 	N 	0.40354 0.00464 0.45827 -0.19900
H 	H 	0.43474 0.90001 0.53974 0.04500
N 	N 	0.49541 0.91872 0.57777 -0.19500
H 	H 	0.41025 0.02971 0.44447 0.08200
H 	H 	0.37817 0.99856 0.46017 0.08600
H 	H 	0.48810 0.89417 0.59344 0.08000
H 	H 	0.51931 0.92752 0.59097 0.08500
H 	H 	0.55436 0.93580 0.40043 0.08200
H 	H 	0.51405 0.93044 0.43668 0.08900
H 	H 	0.58365 0.07454 0.59705 0.09400
H 	H 	0.54390 0.06849 0.63542 0.08800
C 	C 	0.40709 0.96478 0.79375 -0.05100
C 	C 	0.41775 0.97117 0.72747 0.10000
C 	C 	0.44858 0.98762 0.71767 -0.08800
C 	C 	0.47050 0.99405 0.77193 -0.00700
C 	C 	0.46163 0.98359 0.83699 0.07100
C 	C 	0.42980 0.96961 0.84747 -0.05500
N 	N 	0.39929 0.96022 0.67331 -0.19900
H 	H 	0.45598 0.99441 0.66744 0.05400
C 	C 	0.50184 0.01347 0.76106 -0.00600
N 	N 	0.48338 0.98720 0.88967 -0.19400
H 	H 	0.42239 0.96350 0.89802 0.05200
C 	C 	0.50273 0.04923 0.77714 -0.08800
C 	C 	0.53337 0.06669 0.78507 0.09700
C 	C 	0.56347 0.04783 0.77727 -0.05400
C 	C 	0.56246 0.01322 0.75294 -0.05100
C 	C 	0.53182 0.99575 0.74479 0.06600
H 	H 	0.47959 0.06313 0.78656 0.05300
N 	N 	0.53374 0.10151 0.79944 -0.19900
H 	H 	0.58560 0.99927 0.74381 0.04500
N 	N 	0.53140 0.96192 0.72278 -0.19400
H 	H 	0.51143 0.11503 0.80766 0.08100
H 	H 	0.55599 0.11569 0.79982 0.08600
H 	H 	0.55368 0.94894 0.71149 0.08000
H 	H 	0.50900 0.94840 0.71524 0.08700
H 	H 	0.47627 0.98021 0.93783 0.08300
H 	H 	0.50773 0.99613 0.88326 0.08900
H 	H 	0.38135 0.94066 0.67727 0.09400
H 	H 	0.40448 0.96940 0.62571 0.09200
C 	C 	0.63286 0.08777 0.96870 -0.05900
C 	C 	0.60816 0.10544 0.00723 0.10800
C 	C 	0.60942 0.10427 0.07774 -0.09000
C 	C 	0.63664 0.08894 0.11037 -0.00300
C 	C 	0.66332 0.07500 0.07189 0.06800
C 	C 	0.66073 0.07363 0.00144 -0.04400
N 	N 	0.58417 0.12475 0.97715 -0.20300
H 	H 	0.58946 0.11587 0.10731 0.05500
C 	C 	0.63559 0.08477 0.18430 -0.00600
N 	N 	0.69146 0.06299 0.10218 -0.19400
H 	H 	0.68021 0.06100 0.97213 0.04900
C 	C 	0.62894 0.05175 0.20915 -0.08500
C 	C 	0.63028 0.04601 0.27842 0.10100
C 	C 	0.63505 0.07462 0.32410 -0.04900
C 	C 	0.64130 0.10778 0.29941 -0.05300
C 	C 	0.64229 0.11306 0.22980 0.07000
H 	H 	0.62423 0.03007 0.17422 0.05500
N 	N 	0.62842 0.01289 0.30047 -0.19800
H 	H 	0.64549 0.12955 0.33440 0.04700
N 	N 	0.65005 0.14511 0.20718 -0.19400
H 	H 	0.62287 0.99223 0.26690 0.08300
H 	H 	0.63462 0.00702 0.34988 0.09200
H 	H 	0.65449 0.16589 0.24114 0.08300
H 	H 	0.65237 0.14962 0.15600 0.08800
H 	H 	0.71054 0.05163 0.07353 0.08700
H 	H 	0.69523 0.06597 0.15399 0.09000
H 	H 	0.58577 0.13093 0.92656 0.08900
H 	H 	0.56488 0.13594 0.00549 0.08500
C 	C 	0.96936 0.17475 0.35488 -0.08900
C 	C 	0.94028 0.16924 0.31615 -0.02200
C 	C 	0.91224 0.15423 0.34476 0.03300
C 	C 	0.91378 0.14363 0.41195 -0.09800
C 	C 	0.94036 0.15510 0.45325 -0.02100
C 	C 	0.96770 0.17177 0.42518 0.01200
S 	S 	0.87516 0.14999 0.29700 -0.04400
S 	S 	0.99869 0.19018 0.47830 -0.04300
H 	H 	0.02406 0.16667 0.48425 0.00100
H 	H 	0.85619 0.17937 0.30622 0.04100
H 	H 	0.94010 0.17472 0.26305 0.05700
H 	H 	0.94050 0.14963 0.50637 0.04500
C 	C 	0.96725 0.02225 0.54121 -0.08800
C 	C 	0.96653 0.98885 0.56743 -0.04100
C 	C 	0.99628 0.97010 0.57612 0.02500
C 	C 	0.02721 0.98473 0.55805 -0.08500
C 	C 	0.02821 0.01993 0.54128 -0.04900
C 	C 	0.99844 0.03896 0.53413 0.03800
S 	S 	0.99428 0.92796 0.60719 -0.05900
S 	S 	0.00053 0.08400 0.52084 -0.12600
H 	H 	0.99139 0.09116 0.45643 -0.05400
H 	H 	0.98518 0.90539 0.55575 0.00600
H 	H 	0.94275 0.97652 0.57696 0.02500
H 	H 	0.05191 0.03202 0.53042 0.01700
C 	C 	0.70967 0.03624 0.54663 -0.07000
C 	C 	0.69125 0.06696 0.54108 -0.02600
C 	C 	0.70608 0.09902 0.56048 0.05000
C 	C 	0.74076 0.10065 0.57105 -0.02600
C 	C 	0.76023 0.07043 0.56476 -0.08800
C 	C 	0.74416 0.03768 0.55910 0.09900
C 	C 	0.76397 0.00438 0.55865 -0.20900
H 	H 	0.69772 0.01134 0.53594 0.05100
H 	H 	0.75285 0.12570 0.57912 0.03800
C 	C 	0.68554 0.13179 0.56523 -0.18200
H 	H 	0.74849 0.98254 0.57635 0.07200
H 	H 	0.78602 0.00663 0.59263 0.09600
H 	H 	0.77223 0.99799 0.50668 0.09000
H 	H 	0.66070 0.12636 0.58710 0.06900
H 	H 	0.68207 0.14240 0.51437 0.07100
H 	H 	0.69797 0.15182 0.59819 0.06300
C 	C 	0.96357 0.03980 0.73336 -0.08700
C 	C 	0.98852 0.01431 0.74087 -0.03300
C 	C 	0.02226 0.02231 0.73000 0.03500
C 	C 	0.03114 0.05577 0.70892 -0.07500
C 	C 	0.00568 0.07879 0.69042 -0.04100
C 	C 	0.97214 0.07148 0.70385 0.03300
S 	S 	0.05306 0.99127 0.74855 -0.16900
S 	S 	0.94159 0.10286 0.68567 -0.15000
H 	H 	0.93075 0.09792 0.62062 0.06500
H 	H 	0.05498 0.96691 0.69721 0.05900
H 	H 	0.98195 0.98903 0.75963 0.01000
H 	H 	0.01211 0.10318 0.66841 0.04100
C 	C 	0.90544 0.17710 0.98718 -0.11500
C 	C 	0.88262 0.18717 0.93771 -0.04200
C 	C 	0.86438 0.16186 0.90096 0.01800
C 	C 	0.86925 0.12625 0.91474 -0.13200
C 	C 	0.88512 0.11785 0.97549 -0.05100
C 	C 	0.90206 0.14379 0.01328 0.02000
S 	S 	0.83326 0.17536 0.84439 -0.04400
S 	S 	0.91811 0.13484 0.09334 -0.04000
H 	H 	0.95160 0.12797 0.09027 0.04600
H 	H 	0.84686 0.17881 0.78201 0.02800
H 	H 	0.88185 0.21405 0.92277 0.03700
H 	H 	0.88483 0.09134 0.99251 -0.02400
C 	C 	0.72642 0.02441 0.71854 -0.02500
C 	C 	0.75081 0.05015 0.72907 -0.09000
C 	C 	0.74093 0.08527 0.73732 0.09700
C 	C 	0.70709 0.09317 0.74765 -0.07100
C 	C 	0.68325 0.06646 0.74840 -0.02700
C 	C 	0.69245 0.03256 0.72593 0.05100
C 	C 	0.66647 0.00475 0.71275 -0.18100
H 	H 	0.73395 0.99767 0.70847 0.03600
H 	H 	0.69974 0.11968 0.76048 0.05000
C 	C 	0.76657 0.11397 0.74188 -0.20800
H 	H 	0.67755 0.98095 0.68903 0.06300
H 	H 	0.64704 0.01431 0.67770 0.07600
H 	H 	0.65476 0.99744 0.76069 0.07100
H 	H 	0.78679 0.10913 0.70494 0.09100
H 	H 	0.77744 0.11547 0.79336 0.08900
H 	H 	0.75517 0.13952 0.73061 0.07100
C 	C 	0.03717 0.58311 0.23849 -0.05100
C 	C 	0.02332 0.55033 0.25270 0.09700
C 	C 	0.04236 0.52012 0.24131 -0.08500
C 	C 	0.07485 0.52227 0.21598 -0.00600
C 	C 	0.08682 0.55453 0.19335 0.07100
C 	C 	0.06776 0.58478 0.20498 -0.05400
N 	N 	0.99191 0.54774 0.27756 -0.19800
H 	H 	0.03259 0.49509 0.25550 0.05300
C 	C 	0.09750 0.49210 0.22313 -0.00600
N 	N 	0.11668 0.55673 0.16168 -0.19400
H 	H 	0.07757 0.60985 0.19109 0.04800
C 	C 	0.10259 0.46931 0.16792 -0.08900
C 	C 	0.12145 0.43883 0.17488 0.09800
C 	C 	0.13102 0.42840 0.24000 -0.05100
C 	C 	0.12728 0.45205 0.29475 -0.05500
C 	C 	0.11149 0.48425 0.28642 0.07000
H 	H 	0.09281 0.47587 0.11908 0.05200
N 	N 	0.13202 0.42105 0.11905 -0.19900
H 	H 	0.13598 0.44516 0.34431 0.05200
N 	N 	0.10966 0.50737 0.33940 -0.19400
H 	H 	0.12254 0.42712 0.07182 0.08700
H 	H 	0.15219 0.40390 0.12117 0.09500
H 	H 	0.11904 0.50088 0.38655 0.08300
H 	H 	0.10001 0.53236 0.33388 0.08900
H 	H 	0.12542 0.58071 0.14567 0.08500
H 	H 	0.13103 0.53464 0.15084 0.08700
H 	H 	0.97638 0.56948 0.28239 0.09100
H 	H 	0.98227 0.52354 0.29017 0.08400
C 	C 	0.09126 0.60907 0.97900 -0.05200
C 	C 	0.12653 0.60734 0.97659 0.09700
C 	C 	0.14230 0.57482 0.97934 -0.08900
C 	C 	0.12330 0.54436 0.98321 -0.00500
C 	C 	0.08867 0.54680 0.99633 0.06900
C 	C 	0.07295 0.57936 0.99439 -0.05700
N 	N 	0.14523 0.63657 0.96985 -0.20000
H 	H 	0.16913 0.57300 0.97310 0.05200
C 	C 	0.13805 0.51109 0.95916 -0.01300
N 	N 	0.07029 0.51787 0.00792 -0.19200
H 	H 	0.04609 0.58115 0.00015 0.05000
C 	C 	0.15786 0.49180 0.00296 -0.07900
C 	C 	0.16913 0.45841 0.98349 0.08900
C 	C 	0.15830 0.44341 0.92134 -0.05000
C 	C 	0.14086 0.46382 0.87558 -0.05800
C 	C 	0.13127 0.49785 0.89333 0.07200
H 	H 	0.16429 0.50263 0.05231 0.04900
N 	N 	0.19081 0.44129 0.02372 -0.19700
H 	H 	0.13364 0.45272 0.82686 0.04800
N 	N 	0.11538 0.51758 0.84725 -0.19500
H 	H 	0.19813 0.45220 0.07029 0.08300
H 	H 	0.20136 0.41756 0.00828 0.09000
H 	H 	0.10936 0.50708 0.79964 0.08200
H 	H 	0.10993 0.54378 0.85718 0.09000
H 	H 	0.04473 0.51987 0.01753 0.08300
H 	H 	0.08121 0.49322 0.00809 0.08400
H 	H 	0.13434 0.66124 0.97038 0.09000
H 	H 	0.17119 0.63489 0.96590 0.08100
C 	C 	0.04283 0.67005 0.78923 -0.04900
C 	C 	0.01050 0.67870 0.76529 0.09600
C 	C 	0.00445 0.67946 0.69559 -0.09000
C 	C 	0.02920 0.66907 0.64969 -0.00500
C 	C 	0.06139 0.66004 0.67363 0.07000
C 	C 	0.06798 0.66116 0.74311 -0.05300
N 	N 	0.98488 0.68481 0.80854 -0.19800
H 	H 	0.97987 0.68641 0.67711 0.05600
C 	C 	0.02066 0.66607 0.57686 -0.00700
N 	N 	0.08597 0.64999 0.63038 -0.19400
H 	H 	0.09272 0.65464 0.76142 0.04900
C 	C 	0.02927 0.69331 0.53492 -0.08600
C 	C 	0.02696 0.68906 0.46456 0.09800
C 	C 	0.01306 0.65792 0.43600 -0.04700
C 	C 	0.00236 0.63167 0.47842 -0.05800
C 	C 	0.00646 0.63516 0.54849 0.06900
H 	H 	0.03980 0.71708 0.55688 0.05400
N 	N 	0.03945 0.71421 0.42513 -0.19900
H 	H 	0.99141 0.60804 0.45669 0.05100
N 	N 	0.99706 0.60863 0.58799 -0.19300
H 	H 	0.04762 0.73791 0.44652 0.08800
H 	H 	0.04310 0.70981 0.37381 0.09100
H 	H 	0.98685 0.58583 0.56651 0.08300
H 	H 	0.99965 0.61031 0.64020 0.08900
H 	H 	0.10963 0.64341 0.64858 0.08200
H 	H 	0.08192 0.64842 0.57853 0.08800
H 	H 	0.98718 0.67994 0.85965 0.08900
H 	H 	0.96160 0.69279 0.79057 0.08300
C 	C 	0.99531 0.00907 0.05397 -0.07100
C 	C 	0.02413 0.02930 0.06532 -0.03400
C 	C 	0.02486 0.06416 0.04557 0.04800
C 	C 	0.99632 0.07857 0.01441 -0.08200
C 	C 	0.96598 0.06031 0.01636 -0.04800
C 	C 	0.96522 0.02623 0.03989 0.02200
S 	S 	0.06057 0.08966 0.06391 -0.05200
S 	S 	0.92700 0.00378 0.04481 -0.20200
H 	H 	0.91085 0.01144 0.10362 0.05400
H 	H 	0.08627 0.08204 0.02116 0.02500
H 	H 	0.04673 0.01719 0.08367 0.04800
H 	H 	0.94329 0.07231 0.99867 -0.06700
C 	C 	0.94770 0.90002 0.89912 -0.09000
C 	C 	0.92000 0.90497 0.94133 -0.01900
C 	C 	0.89311 0.92544 0.92118 0.03200
C 	C 	0.89395 0.94151 0.85859 -0.10000
C 	C 	0.91934 0.93270 0.81295 -0.01800
C 	C 	0.94574 0.91124 0.83228 0.00800
S 	S 	0.85809 0.92979 0.97374 -0.04000
S 	S 	0.97440 0.89648 0.77125 -0.05100
H 	H 	0.00012 0.91988 0.76771 -0.02400
H 	H 	0.86236 0.95781 0.01712 0.03400
H 	H 	0.91996 0.89409 0.99094 0.05500
H 	H 	0.91912 0.94338 0.76315 0.04400
C 	C 	0.10040 0.97670 0.97784 -0.10800
C 	C 	0.07872 0.00165 0.95238 -0.04600
C 	C 	0.09108 0.02917 0.91636 0.04700
C 	C 	0.12548 0.03114 0.90344 -0.13200
C 	C 	0.14744 0.01076 0.94108 -0.00800
C 	C 	0.13507 0.98285 0.97711 0.03300
S 	S 	0.06309 0.06029 0.88649 -0.22900
S 	S 	0.16323 0.95465 0.01654 -0.03600
H 	H 	0.17203 0.92838 0.97211 0.03400
H 	H 	0.03415 0.04456 0.86463 0.03200
H 	H 	0.05208 0.99811 0.95579 -0.04300
H 	H 	0.17418 0.01384 0.93544 0.03600
C 	C 	0.08337 0.74201 0.04217 -0.06900
C 	C 	0.05413 0.72934 0.01069 -0.02900
C 	C 	0.02430 0.74868 0.01645 0.05700
C 	C 	0.02554 0.78286 0.04304 -0.03100
C 	C 	0.05580 0.79718 0.06689 -0.09300
C 	C 	0.08405 0.77554 0.07215 0.08400
C 	C 	0.11580 0.78911 0.10446 -0.20000
H 	H 	0.10592 0.72640 0.04094 0.04900
H 	H 	0.00344 0.79912 0.04105 0.05300
C 	C 	0.99144 0.73372 0.99186 -0.19300
H 	H 	0.13135 0.76741 0.12301 0.06600
H 	H 	0.11008 0.80666 0.14821 0.07000
H 	H 	0.13034 0.80366 0.06725 0.07600
H 	H 	0.98930 0.70592 0.00499 0.07600
H 	H 	0.98944 0.73605 0.93654 0.07600
H 	H 	0.97007 0.74776 0.01534 0.07600
C 	C 	0.97895 0.97381 0.23196 -0.09300
C 	C 	0.95361 0.99854 0.22301 -0.05400
C 	C 	0.96147 0.03406 0.21822 -0.00300
C 	C 	0.99497 0.04522 0.22347 -0.07100
C 	C 	0.02034 0.02035 0.22961 -0.06500
C 	C 	0.01261 0.98479 0.23286 0.05700
S 	S 	0.92915 0.06442 0.20686 -0.10300
S 	S 	0.04525 0.95447 0.24068 -0.20100
H 	H 	0.05616 0.94423 0.17813 0.05900
H 	H 	0.92328 0.08268 0.26566 -0.03300
H 	H 	0.92769 0.99037 0.22238 -0.00100
H 	H 	0.04595 0.02886 0.23595 0.02300
C 	C 	0.85998 0.91190 0.28450 -0.11500
C 	C 	0.86063 0.94570 0.26017 -0.04200
C 	C 	0.85321 0.97409 0.30309 0.01500
C 	C 	0.84645 0.96830 0.37159 -0.12600
C 	C 	0.83919 0.93439 0.39113 -0.04200
C 	C 	0.84500 0.90623 0.34689 0.00900
S 	S 	0.84837 0.01551 0.26876 -0.16200
S 	S 	0.83649 0.86371 0.37237 -0.05400
H 	H 	0.86395 0.85082 0.40477 0.01000
H 	H 	0.81585 0.01978 0.24875 0.06200
H 	H 	0.86933 0.95008 0.20968 0.04000
H 	H 	0.83084 0.92976 0.44174 0.03600
C 	C 	0.07582 0.84627 0.47144 -0.09900
C 	C 	0.07848 0.82841 0.40944 -0.03600
C 	C 	0.05005 0.82376 0.36910 0.03200
C 	C 	0.01925 0.83753 0.39174 -0.10000
C 	C 	0.01575 0.84569 0.46057 -0.04000
C 	C 	0.04428 0.84830 0.50140 0.03400
S 	S 	0.05261 0.79780 0.29505 -0.05100
S 	S 	0.04053 0.85141 0.58920 -0.04000
H 	H 	0.03956 0.81864 0.61439 0.03700
H 	H 	0.06120 0.81794 0.24221 0.04200
H 	H 	0.10289 0.82187 0.38959 0.03800
H 	H 	0.99139 0.85148 0.48134 0.02000
C 	C 	0.98953 0.75453 0.17386 -0.02000
C 	C 	0.95497 0.75773 0.16317 -0.09700
C 	C 	0.93471 0.72767 0.16569 0.09100
C 	C 	0.94796 0.69708 0.19235 -0.07000
C 	C 	0.98182 0.69541 0.21029 -0.02300
C 	C 	0.00326 0.72288 0.19397 0.04500
C 	C 	0.04058 0.71883 0.19988 -0.18200
H 	H 	0.00522 0.77747 0.17297 0.04600
H 	H 	0.93167 0.67523 0.20164 0.05100
C 	C 	0.89826 0.72917 0.14682 -0.20300
H 	H 	0.05392 0.74177 0.18086 0.07000
H 	H 	0.04878 0.69557 0.16996 0.07400
H 	H 	0.04795 0.71578 0.25320 0.06900
H 	H 	0.89428 0.74682 0.10429 0.07600
H 	H 	0.88359 0.73875 0.19068 0.08300
H 	H 	0.88888 0.70299 0.13073 0.07000
