data_crystal

_cell_length_a 28.86566
_cell_length_b 29.51675
_cell_length_c 46.27809
_cell_angle_alpha 90.03402
_cell_angle_beta  89.96876
_cell_angle_gamma 120.03720

_symmetry_space_group_name_	'P 1'
_symmetry_space_group_name_H-M	'P 1'

loop_
_symmetry_equiv_pos_as_xyz
  x,y,z

loop_
_atom_site_label
_atom_site_type_symbol
_atom_site_fract_x
_atom_site_fract_y
_atom_site_fract_z
_atom_site_charge
C 	C 	0.36988 0.00878 0.72399 0.30100
C 	C 	0.34454 0.01842 0.59706 0.31900
C 	C 	0.46872 0.06915 0.66212 0.32900
C 	C 	0.23607 0.94979 0.65731 0.29000
C 	C 	0.40181 0.16937 0.64217 0.34400
C 	C 	0.29827 0.11789 0.69189 0.31400
Ni	Ni	0.35378 0.98997 0.65808 1.14400
Ni	Ni	0.30445 0.06377 0.64072 1.14300
Ni	Ni	0.39641 0.10263 0.68871 1.13700
O 	O 	0.37951 0.98834 0.70055 -0.26000
O 	O 	0.37237 0.05497 0.72346 -0.30000
O 	O 	0.35003 0.14277 0.63689 -0.30400
O 	O 	0.33081 0.97880 0.61467 -0.27900
O 	O 	0.34524 0.06086 0.60596 -0.28600
O 	O 	0.34893 0.13389 0.69978 -0.32000
O 	O 	0.43095 0.03941 0.64407 -0.26600
O 	O 	0.45707 0.08598 0.68583 -0.29200
O 	O 	0.27058 0.07646 0.67517 -0.31900
O 	O 	0.27372 0.94063 0.66715 -0.27900
O 	O 	0.24681 0.98612 0.63720 -0.29900
O 	O 	0.42546 0.14547 0.65302 -0.33600
O 	O 	0.34231 0.04544 0.66766 -0.71800
H 	H 	0.31523 0.02919 0.68302 0.17700
C 	C 	0.37382 0.03844 0.93148 0.29100
C 	C 	0.35987 0.04232 0.05779 0.32000
C 	C 	0.42970 0.15268 0.98894 0.31800
C 	C 	0.30480 0.92394 0.00426 0.30000
C 	C 	0.51931 0.09490 0.02868 0.31700
C 	C 	0.46877 0.97887 0.97424 0.29500
Ni	Ni	0.34412 0.04030 0.99362 1.14300
Ni	Ni	0.41573 0.99747 0.02502 1.13600
Ni	Ni	0.46621 0.07778 0.97235 1.14200
O 	O 	0.33316 0.02101 0.94989 -0.22400
O 	O 	0.42162 0.07824 0.93824 -0.28400
O 	O 	0.47586 0.06248 0.04320 -0.31800
O 	O 	0.35547 0.06805 0.03585 -0.30800
O 	O 	0.36389 0.00048 0.05354 -0.30200
O 	O 	0.47105 0.01612 0.95699 -0.31100
O 	O 	0.38225 0.11749 0.97946 -0.28300
O 	O 	0.46981 0.14331 0.98910 -0.27700
O 	O 	0.46738 0.98257 0.00284 -0.31200
O 	O 	0.29446 0.96283 0.00785 -0.24800
O 	O 	0.35189 0.92930 0.01167 -0.28200
O 	O 	0.52308 0.08820 0.00091 -0.31700
O 	O 	0.40353 0.03060 0.99313 -0.72400
H 	H 	0.38968 0.00124 0.97939 0.18000
C 	C 	0.28975 0.05987 0.39699 0.30300
C 	C 	0.31356 0.04909 0.26925 0.31900
C 	C 	0.23905 0.10824 0.33161 0.31300
C 	C 	0.35814 0.99644 0.33236 0.28400
C 	C 	0.14218 0.95264 0.30212 0.32300
C 	C 	0.18765 0.89188 0.35619 0.31400
Ni	Ni	0.32334 0.07695 0.33308 1.14300
Ni	Ni	0.24871 0.95948 0.30711 1.14100
Ni	Ni	0.20062 0.00176 0.35504 1.14200
O 	O 	0.31460 0.09471 0.37607 -0.26400
O 	O 	0.24148 0.01809 0.39289 -0.29800
O 	O 	0.16969 0.92846 0.29829 -0.28500
O 	O 	0.34686 0.07548 0.29037 -0.25900
O 	O 	0.26480 0.01145 0.27489 -0.31000
O 	O 	0.16601 0.92226 0.36089 -0.27900
O 	O 	0.28243 0.11414 0.31879 -0.27100
O 	O 	0.22040 0.07843 0.35474 -0.32700
O 	O 	0.22794 0.90528 0.33790 -0.31600
O 	O 	0.36858 0.04202 0.34364 -0.23400
O 	O 	0.32714 0.97731 0.30907 -0.29000
O 	O 	0.16111 0.99456 0.31835 -0.34200
O 	O 	0.26233 0.00983 0.33625 -0.71800
H 	H 	0.27433 0.99540 0.35176 0.18900
C 	C 	0.69327 0.66785 0.60841 0.28400
C 	C 	0.68554 0.66075 0.73611 0.32000
C 	C 	0.75395 0.77807 0.66983 0.31900
C 	C 	0.62672 0.55195 0.68006 0.28400
C 	C 	0.79476 0.60472 0.64961 0.29300
Ni	Ni	0.66708 0.66631 0.67250 1.14300
Ni	Ni	0.74149 0.62190 0.69946 1.14500
Ni	Ni	0.78622 0.70431 0.64800 1.13400
O 	O 	0.67188 0.68453 0.62828 -0.26900
O 	O 	0.74280 0.67630 0.61146 -0.32900
O 	O 	0.64890 0.64877 0.71613 -0.26500
O 	O 	0.73222 0.66598 0.72976 -0.27400
O 	O 	0.71037 0.74495 0.68363 -0.28700
O 	O 	0.76847 0.76278 0.64655 -0.32800
O 	O 	0.75711 0.58186 0.66974 -0.33700
O 	O 	0.61865 0.58674 0.66627 -0.25000
O 	O 	0.66177 0.56587 0.70172 -0.27000
O 	O 	0.72549 0.65473 0.66868 -0.71500
H 	H 	0.71108 0.62599 0.65449 0.16300
C 	C 	0.66157 0.65761 0.94476 0.29500
C 	C 	0.63692 0.68323 0.06969 0.31400
C 	C 	0.71214 0.61788 0.01282 0.31900
C 	C 	0.58977 0.72633 0.00359 0.29700
C 	C 	0.54462 0.51585 0.03795 0.31300
C 	C 	0.49400 0.56077 0.97640 0.30200
Ni	Ni	0.67244 0.69346 0.00772 1.14500
Ni	Ni	0.54990 0.61865 0.02925 1.14300
Ni	Ni	0.60321 0.57227 0.98708 1.13800
O 	O 	0.69548 0.68451 0.96598 -0.23800
O 	O 	0.62325 0.60813 0.94830 -0.30600
O 	O 	0.51834 0.54168 0.03910 -0.28100
O 	O 	0.66347 0.71650 0.04891 -0.27200
O 	O 	0.59881 0.63548 0.06379 -0.32700
O 	O 	0.52313 0.53710 0.97808 -0.28600
O 	O 	0.70670 0.65358 0.02672 -0.29400
O 	O 	0.68225 0.59425 0.99015 -0.30700
O 	O 	0.49884 0.59616 0.99586 -0.31300
O 	O 	0.63719 0.73606 0.99391 -0.26200
O 	O 	0.56686 0.69494 0.02622 -0.29000
O 	O 	0.59137 0.53667 0.02523 -0.36200
O 	O 	0.60554 0.63290 0.00247 -0.72600
H 	H 	0.59249 0.64348 0.98558 0.18500
C 	C 	0.66292 0.74750 0.40828 0.31700
C 	C 	0.63474 0.73816 0.28052 0.31200
C 	C 	0.76078 0.79947 0.34317 0.30900
C 	C 	0.52848 0.68624 0.34171 0.30100
C 	C 	0.69972 0.90069 0.32032 0.30400
C 	C 	0.59208 0.85065 0.37006 0.30400
Ni	Ni	0.64441 0.71887 0.34349 1.13600
Ni	Ni	0.60127 0.79537 0.31963 1.13900
Ni	Ni	0.69096 0.83665 0.36850 1.16700
O 	O 	0.67051 0.72267 0.38632 -0.28500
O 	O 	0.66467 0.79300 0.40486 -0.25100
O 	O 	0.64848 0.87412 0.31347 -0.32800
O 	O 	0.62121 0.70188 0.30040 -0.27700
O 	O 	0.64144 0.78429 0.28716 -0.33900
O 	O 	0.64417 0.87013 0.37607 -0.27600
O 	O 	0.72279 0.75939 0.32923 -0.32300
O 	O 	0.74964 0.81740 0.36669 -0.24500
O 	O 	0.56568 0.81134 0.35181 -0.30400
O 	O 	0.56325 0.67382 0.35254 -0.26200
O 	O 	0.54162 0.71834 0.31909 -0.29500
O 	O 	0.72201 0.87663 0.33228 -0.31200
O 	O 	0.63735 0.77849 0.34842 -0.73000
H 	H 	0.61010 0.76548 0.36371 0.20400
C 	C 	0.07574 0.27891 0.65026 0.30700
C 	C 	0.84967 0.20083 0.62272 0.32300
O 	O 	0.04144 0.34428 0.61193 -0.26900
O 	O 	0.07601 0.31821 0.66438 -0.24100
C 	C 	0.01438 0.37862 0.05917 0.34100
C 	C 	0.12095 0.41764 0.99793 0.30400
C 	C 	0.07719 0.54155 0.97206 0.31500
Ni	Ni	0.06131 0.47091 0.02019 1.14800
O 	O 	0.02622 0.51369 0.96313 -0.30900
O 	O 	0.10010 0.52078 0.98791 -0.29100
O 	O 	0.08051 0.37451 0.98670 -0.29500
O 	O 	0.11312 0.44206 0.02007 -0.25100
H 	H 	0.04614 0.43191 0.97582 0.19500
C 	C 	0.00455 0.41541 0.26459 0.32900
C 	C 	0.97459 0.38431 0.39119 0.28800
C 	C 	0.04455 0.51570 0.32918 0.32100
C 	C 	0.14292 0.45823 0.36358 0.32400
C 	C 	0.10910 0.35727 0.30737 0.30900
Ni	Ni	0.04093 0.35844 0.35441 1.14600
Ni	Ni	0.09075 0.45100 0.30857 1.14300
O 	O 	0.97659 0.42548 0.28391 -0.28200
O 	O 	0.05518 0.42837 0.26938 -0.28300
O 	O 	0.11883 0.40673 0.36439 -0.33900
O 	O 	0.02348 0.39474 0.38595 -0.31500
O 	O 	0.12958 0.40899 0.30420 -0.30600
O 	O 	0.00388 0.47704 0.34249 -0.31100
O 	O 	0.06791 0.50622 0.30742 -0.26600
O 	O 	0.06612 0.32819 0.32348 -0.27700
O 	O 	0.96288 0.29816 0.35230 -0.28100
O 	O 	0.12531 0.48168 0.34650 -0.31800
O 	O 	0.02782 0.39504 0.32493 -0.72200
H 	H 	0.01748 0.36922 0.30922 0.19000
C 	C 	0.02741 0.36512 0.13896 0.06100
C 	C 	0.99983 0.35705 0.08871 -0.00500
C 	C 	0.03990 0.36767 0.10944 -0.03000
C 	C 	0.09624 0.38358 0.10014 0.78000
H 	H 	0.05883 0.37781 0.15501 0.14600
C 	C 	0.96526 0.32527 0.20080 -0.08300
C 	C 	0.97199 0.34269 0.22959 0.08600
C 	C 	0.98050 0.39257 0.23633 0.00400
C 	C 	0.96389 0.27424 0.19397 0.78100
H 	H 	0.97450 0.31895 0.24664 0.13500
F 	F 	0.12691 0.38329 0.12306 -0.34000
F 	F 	0.12042 0.43350 0.08866 -0.36000
F 	F 	0.09463 0.34883 0.07956 -0.34600
F 	F 	0.94579 0.24077 0.21749 -0.33500
F 	F 	0.01490 0.28463 0.18710 -0.34100
C 	C 	0.99039 0.37047 0.79365 -0.09200
C 	C 	0.97473 0.40717 0.80809 0.77700
H 	H 	0.97752 0.38948 0.75031 0.12700
C 	C 	0.04820 0.39450 0.88590 -0.05800
C 	C 	0.05018 0.38590 0.85616 0.05300
C 	C 	0.09065 0.44595 0.89894 0.79300
H 	H 	0.08331 0.41453 0.84327 0.14800
F 	F 	0.01972 0.44961 0.81960 -0.36600
F 	F 	0.93800 0.38155 0.82992 -0.37200
F 	F 	0.95165 0.42570 0.78866 -0.36400
F 	F 	0.10037 0.44002 0.92750 -0.43200
F 	F 	0.07375 0.48220 0.89719 -0.35900
F 	F 	0.13857 0.46530 0.88415 -0.34100
C 	C 	0.99151 0.43195 0.46722 -0.09700
C 	C 	0.98772 0.43245 0.43690 0.06700
C 	C 	0.95875 0.38560 0.42136 0.02700
C 	C 	0.02661 0.48283 0.48321 0.80200
H 	H 	0.01104 0.46881 0.42517 0.13800
F 	F 	0.07703 0.48920 0.48703 -0.36700
F 	F 	0.00516 0.48307 0.50991 -0.32900
F 	F 	0.03150 0.52511 0.46775 -0.32500
F 	F 	0.12080 0.40326 0.57333 -0.35700
C 	C 	0.40226 0.61646 0.38761 0.05500
C 	C 	0.36314 0.59405 0.36617 0.10200
C 	C 	0.37745 0.60586 0.33673 -0.08000
C 	C 	0.43187 0.63591 0.32928 0.08900
C 	C 	0.47165 0.65576 0.35069 0.04100
C 	C 	0.45662 0.64708 0.38037 -0.03500
C 	C 	0.30723 0.55752 0.37481 0.10200
C 	C 	0.33478 0.58725 0.31335 0.78900
H 	H 	0.44354 0.64330 0.30676 0.14500
C 	C 	0.49804 0.66474 0.40426 0.78700
H 	H 	0.39035 0.60800 0.41007 0.15300
C 	C 	0.28718 0.50292 0.37600 -0.09000
C 	C 	0.23149 0.46899 0.37591 0.09200
C 	C 	0.19669 0.48932 0.37644 0.01400
C 	C 	0.21766 0.54295 0.38311 -0.04400
C 	C 	0.27298 0.57716 0.38071 0.04800
C 	C 	0.32483 0.48102 0.37689 0.79100
H 	H 	0.21529 0.42725 0.37341 0.11100
C 	C 	0.18161 0.56448 0.39141 0.78200
H 	H 	0.28912 0.61908 0.38227 0.14700
F 	F 	0.47589 0.66397 0.43094 -0.35500
F 	F 	0.53920 0.71520 0.39967 -0.42100
F 	F 	0.51807 0.63102 0.40526 -0.39000
F 	F 	0.30033 0.60600 0.31891 -0.38900
F 	F 	0.30593 0.53317 0.31269 -0.37900
F 	F 	0.35679 0.60471 0.28623 -0.36000
F 	F 	0.13421 0.52615 0.40354 -0.40100
F 	F 	0.17042 0.58455 0.36714 -0.38900
F 	F 	0.20686 0.60421 0.41152 -0.34100
F 	F 	0.29746 0.42755 0.38171 -0.34700
F 	F 	0.36139 0.50428 0.39905 -0.36800
F 	F 	0.35202 0.49070 0.35097 -0.34800
C 	C 	0.78039 0.04372 0.34219 0.04900
C 	C 	0.71982 0.98325 0.29531 0.07600
C 	C 	0.72943 0.95882 0.31874 0.01700
C 	C 	0.76419 0.99036 0.34142 -0.07000
H 	H 	0.69510 0.95949 0.27757 0.12500
C 	C 	0.78959 0.96952 0.36255 0.78200
H 	H 	0.80277 0.06735 0.36054 0.14500
F 	F 	0.82722 0.00883 0.38002 -0.35200
F 	F 	0.81579 0.94833 0.34758 -0.38500
F 	F 	0.75117 0.93226 0.38044 -0.45100
F 	F 	0.97959 0.26078 0.28520 -0.41300
F 	F 	0.74349 0.11748 0.37196 -0.35900
C 	C 	0.64112 0.73945 0.14361 0.04100
C 	C 	0.66482 0.71640 0.15986 0.10300
C 	C 	0.68395 0.68620 0.14591 -0.09000
C 	C 	0.67592 0.67730 0.11602 0.09100
C 	C 	0.65082 0.69916 0.09995 0.01700
C 	C 	0.63466 0.73191 0.11362 -0.04500
C 	C 	0.66285 0.71861 0.19171 0.10200
C 	C 	0.70783 0.65900 0.16313 0.79000
H 	H 	0.68755 0.65183 0.10531 0.11100
C 	C 	0.60756 0.75619 0.09658 0.77700
H 	H 	0.62588 0.76167 0.15467 0.14300
C 	C 	0.69950 0.76413 0.20704 -0.08600
C 	C 	0.69119 0.76777 0.23666 0.08800
C 	C 	0.64567 0.72840 0.25072 0.00900
C 	C 	0.60881 0.68294 0.23524 -0.04700
C 	C 	0.61945 0.67767 0.20619 0.03700
C 	C 	0.74437 0.81082 0.19139 0.79200
H 	H 	0.71896 0.80238 0.24865 0.10800
C 	C 	0.55799 0.64029 0.24937 0.77900
H 	H 	0.59235 0.64273 0.19422 0.14300
F 	F 	0.59707 0.78864 0.11359 -0.35800
F 	F 	0.55950 0.71708 0.08561 -0.41000
F 	F 	0.64018 0.78588 0.07410 -0.38400
F 	F 	0.66719 0.61507 0.17638 -0.38200
F 	F 	0.74274 0.69195 0.18399 -0.35100
F 	F 	0.73616 0.64359 0.14543 -0.36400
F 	F 	0.52345 0.60460 0.22928 -0.36300
F 	F 	0.53088 0.66181 0.26307 -0.40000
F 	F 	0.57089 0.61344 0.26927 -0.37000
F 	F 	0.78098 0.84704 0.21056 -0.34700
F 	F 	0.72315 0.83539 0.17517 -0.37900
F 	F 	0.77172 0.79494 0.17331 -0.34300
C 	C 	0.83719 0.58366 0.03111 0.10300
H 	H 	0.89019 0.56965 0.07478 0.15000
C 	C 	0.78315 0.54285 0.03019 -0.08800
C 	C 	0.74274 0.55524 0.02490 0.09400
C 	C 	0.75541 0.60735 0.02100 0.01700
C 	C 	0.80940 0.64839 0.02378 -0.03100
C 	C 	0.84911 0.63583 0.03073 0.04400
C 	C 	0.76867 0.48620 0.03447 0.79000
H 	H 	0.70134 0.52432 0.02331 0.10300
C 	C 	0.82505 0.70533 0.01922 0.77700
F 	F 	0.87996 0.73718 0.01672 -0.34200
F 	F 	0.80805 0.72261 0.04250 -0.38400
F 	F 	0.71381 0.45287 0.03526 -0.35900
F 	F 	0.78959 0.48104 0.06032 -0.36700
F 	F 	0.78920 0.47057 0.01206 -0.36500
C 	C 	0.35759 0.46287 0.95493 0.05200
C 	C 	0.33550 0.49577 0.95373 0.10900
C 	C 	0.36949 0.54983 0.94811 -0.08700
C 	C 	0.42521 0.57109 0.95008 0.08500
C 	C 	0.44657 0.53893 0.95711 0.03900
C 	C 	0.41332 0.48422 0.95392 -0.04500
C 	C 	0.28024 0.47586 0.96448 0.10200
C 	C 	0.34695 0.58606 0.94387 0.79100
H 	H 	0.45132 0.61314 0.94959 0.13700
C 	C 	0.43642 0.44908 0.94777 0.78800
H 	H 	0.33167 0.42111 0.95789 0.14800
C 	C 	0.23504 0.44303 0.94732 -0.07700
C 	C 	0.18357 0.42204 0.95939 0.09400
C 	C 	0.17642 0.43447 0.98780 0.04300
C 	C 	0.22211 0.46290 0.00570 -0.04400
C 	C 	0.27321 0.48679 0.99308 0.05000
C 	C 	0.24138 0.42726 0.91692 0.79200
H 	H 	0.14894 0.39540 0.94678 0.13200
C 	C 	0.21752 0.46322 0.03833 0.78400
H 	H 	0.30813 0.51190 0.00601 0.14100
F 	F 	0.48245 0.47522 0.93128 -0.38200
F 	F 	0.40019 0.40517 0.93248 -0.35600
F 	F 	0.44813 0.43301 0.97341 -0.40700
F 	F 	0.33820 0.60166 0.97051 -0.37800
F 	F 	0.29927 0.56148 0.92872 -0.33300
F 	F 	0.38241 0.63010 0.92841 -0.35000
F 	F 	0.17913 0.41440 0.04799 -0.34300
F 	F 	0.20447 0.50046 0.04663 -0.35200
F 	F 	0.26528 0.47498 0.05158 -0.35000
F 	F 	0.19391 0.40666 0.90159 -0.36000
F 	F 	0.25649 0.38967 0.91844 -0.37700
F 	F 	0.27963 0.46988 0.90162 -0.34300
C 	C 	0.66014 0.64011 0.81601 0.05000
C 	C 	0.67290 0.69041 0.82491 0.09400
C 	C 	0.68646 0.73046 0.80421 -0.07300
C 	C 	0.68610 0.71861 0.77476 0.09600
C 	C 	0.67439 0.66850 0.76599 0.03600
C 	C 	0.65948 0.62832 0.78665 -0.04500
C 	C 	0.67243 0.70027 0.85612 0.11300
C 	C 	0.70683 0.78675 0.81350 0.79100
H 	H 	0.69704 0.74887 0.75863 0.13800
C 	C 	0.64468 0.57329 0.77745 0.77900
H 	H 	0.65093 0.61024 0.83219 0.13600
C 	C 	0.62325 0.68021 0.87096 -0.08600
C 	C 	0.62144 0.66950 0.90051 0.09900
C 	C 	0.66809 0.68131 0.91586 0.03700
C 	C 	0.71849 0.70772 0.90163 -0.04200
C 	C 	0.71990 0.71753 0.87179 0.03800
C 	C 	0.57126 0.66276 0.85471 0.79200
H 	H 	0.58302 0.64810 0.91121 0.12900
C 	C 	0.77043 0.72407 0.91775 0.78200
H 	H 	0.75750 0.73448 0.86018 0.15700
F 	F 	0.60605 0.55591 0.75612 -0.35500
F 	F 	0.62432 0.53827 0.80023 -0.35400
F 	F 	0.68953 0.57326 0.76695 -0.40300
F 	F 	0.75785 0.80738 0.82469 -0.36000
F 	F 	0.67382 0.78936 0.83430 -0.34200
F 	F 	0.70882 0.81758 0.79046 -0.34600
F 	F 	0.81435 0.74682 0.89952 -0.34600
F 	F 	0.76895 0.68089 0.93039 -0.35900
F 	F 	0.77786 0.76041 0.93879 -0.34700
F 	F 	0.53225 0.66081 0.87292 -0.34000
F 	F 	0.55316 0.61338 0.84334 -0.37400
F 	F 	0.57838 0.69700 0.83251 -0.34700
C 	C 	0.81966 0.90764 0.71018 0.04000
C 	C 	0.81841 0.94095 0.68915 0.11400
C 	C 	0.79772 0.92129 0.66130 -0.09400
C 	C 	0.77727 0.86782 0.65547 0.09100
C 	C 	0.77907 0.83447 0.67645 0.01200
C 	C 	0.80204 0.85490 0.70401 -0.05000
C 	C 	0.84618 0.99771 0.69521 0.07700
C 	C 	0.80049 0.95778 0.63730 0.79000
H 	H 	0.76005 0.85194 0.63452 0.11900
C 	C 	0.81815 0.02228 0.70556 -0.05600
C 	C 	0.84240 0.07704 0.70318 0.08100
C 	C 	0.76387 0.99060 0.71991 0.78100
H 	H 	0.81937 0.09608 0.70758 0.13800
F 	F 	0.78012 0.77285 0.72609 -0.42800
F 	F 	0.77641 0.98588 0.64603 -0.37400
F 	F 	0.77476 0.93057 0.61250 -0.37200
F 	F 	0.74628 0.02248 0.73167 -0.33000
F 	F 	0.76719 0.96084 0.74201 -0.36500
F 	F 	0.72649 0.95767 0.69996 -0.33700
C 	C 	0.91239 0.63764 0.65195 0.78000
F 	F 	0.90127 0.64796 0.67936 -0.41900
F 	F 	0.91530 0.67461 0.63261 -0.38800
F 	F 	0.83756 0.33822 0.70340 -0.38200
F 	F 	0.76374 0.32371 0.67974 -0.33200
C 	C 	0.61032 0.65889 0.54381 0.04100
C 	C 	0.64473 0.66120 0.52172 0.10600
C 	C 	0.68633 0.65048 0.52810 -0.09100
C 	C 	0.69694 0.64499 0.55706 0.08100
C 	C 	0.66775 0.65133 0.57944 0.02200
C 	C 	0.61919 0.64990 0.57252 -0.05600
C 	C 	0.64314 0.68389 0.49360 0.09400
C 	C 	0.72418 0.65224 0.50466 0.79000
H 	H 	0.73059 0.63985 0.56230 0.11800
C 	C 	0.57521 0.63497 0.59467 0.78200
H 	H 	0.57739 0.66531 0.53872 0.15000
C 	C 	0.61271 0.65175 0.47037 -0.06900
C 	C 	0.62303 0.67273 0.44232 0.09500
C 	C 	0.65794 0.72637 0.43774 0.04400
C 	C 	0.68707 0.75897 0.46141 -0.03900
C 	C 	0.67685 0.73761 0.48933 0.04900
C 	C 	0.56796 0.59597 0.47564 0.79100
H 	H 	0.60438 0.64739 0.42394 0.14500
C 	C 	0.72958 0.81603 0.45719 0.78100
H 	H 	0.69749 0.76226 0.50772 0.13100
F 	F 	0.57542 0.60030 0.61467 -0.39200
F 	F 	0.52552 0.61070 0.58143 -0.34500
F 	F 	0.58203 0.67935 0.60862 -0.37900
F 	F 	0.75990 0.70375 0.49761 -0.37500
F 	F 	0.69635 0.62596 0.48016 -0.36000
F 	F 	0.75297 0.62895 0.51387 -0.35800
F 	F 	0.70538 0.84605 0.45425 -0.36500
F 	F 	0.76016 0.82191 0.43300 -0.35000
F 	F 	0.76407 0.83484 0.48057 -0.35100
F 	F 	0.54158 0.57182 0.45032 -0.33700
F 	F 	0.53095 0.59634 0.49447 -0.36200
F 	F 	0.58823 0.56652 0.48753 -0.35000
C 	C 	0.43385 0.95156 0.38033 0.05700
C 	C 	0.46303 0.94095 0.35997 0.09700
C 	C 	0.45237 0.94175 0.33011 -0.07800
C 	C 	0.41911 0.96158 0.32138 0.07800
C 	C 	0.39018 0.97253 0.34192 0.04700
C 	C 	0.39352 0.96183 0.37150 -0.06700
C 	C 	0.49930 0.92238 0.37035 0.10300
C 	C 	0.47209 0.91721 0.30795 0.78700
H 	H 	0.41530 0.96801 0.29869 0.15600
C 	C 	0.35456 0.96063 0.39381 0.78700
H 	H 	0.44069 0.94912 0.40318 0.13600
C 	C 	0.55558 0.95544 0.37043 -0.09400
C 	C 	0.58817 0.93263 0.37318 0.09000
C 	C 	0.56513 0.87921 0.37989 0.03200
C 	C 	0.51057 0.85097 0.38800 -0.05400
C 	C 	0.47723 0.87122 0.38090 0.04300
C 	C 	0.58074 0.01440 0.36844 0.79800
H 	H 	0.63060 0.95547 0.36846 0.11200
C 	C 	0.48721 0.79833 0.40276 0.78500
H 	H 	0.43421 0.84706 0.38324 0.13700
F 	F 	0.37495 0.00968 0.40567 -0.39400
F 	F 	0.34730 0.92567 0.41567 -0.36500
F 	F 	0.30498 0.94516 0.38200 -0.45400
F 	F 	0.45410 0.86559 0.31523 -0.39700
F 	F 	0.52733 0.94394 0.30706 -0.37000
F 	F 	0.45349 0.91801 0.28049 -0.35900
F 	F 	0.44555 0.79039 0.42082 -0.36300
F 	F 	0.52560 0.79564 0.41938 -0.36200
F 	F 	0.46787 0.75912 0.38219 -0.40100
F 	F 	0.63366 0.03925 0.37721 -0.34500
F 	F 	0.55388 0.03136 0.38619 -0.37100
F 	F 	0.57866 0.02895 0.34032 -0.33600
C 	C 	0.00830 0.94026 0.29479 -0.04800
C 	C 	0.06360 0.96185 0.29020 0.06900
C 	C 	0.08685 0.92989 0.29063 0.03300
C 	C 	0.05293 0.87506 0.28801 -0.02700
C 	C 	0.98559 0.97639 0.29935 0.75400
H 	H 	0.08936 0.00397 0.28934 0.13800
C 	C 	0.07346 0.84016 0.27667 0.78400
F 	F 	0.11168 0.86574 0.25547 -0.37200
F 	F 	0.03230 0.79508 0.26447 -0.34600
F 	F 	0.09531 0.82590 0.29902 -0.39900
F 	F 	0.01970 0.02598 0.28858 -0.34700
F 	F 	0.81167 0.78386 0.39131 -0.36500
C 	C 	0.13324 0.25066 0.28456 0.05100
C 	C 	0.17611 0.26078 0.30289 0.10400
C 	C 	0.20854 0.31202 0.31385 -0.08600
C 	C 	0.18862 0.34691 0.31328 0.09500
C 	C 	0.14139 0.33379 0.29812 0.03000
C 	C 	0.11867 0.28906 0.28015 -0.03600
C 	C 	0.18735 0.21798 0.30983 0.10500
C 	C 	0.26450 0.33012 0.32510 0.79200
H 	H 	0.20848 0.38304 0.32551 0.11000
C 	C 	0.09038 0.28801 0.25240 0.78900
H 	H 	0.11267 0.21389 0.27292 0.14800
C 	C 	0.17337 0.19230 0.33696 -0.08500
C 	C 	0.19242 0.15808 0.34419 0.08900
C 	C 	0.21675 0.14238 0.32313 0.02300
C 	C 	0.22001 0.16005 0.29424 -0.04800
C 	C 	0.21016 0.20131 0.28863 0.04800
C 	C 	0.13547 0.19846 0.35724 0.78900
H 	H 	0.18788 0.14334 0.36605 0.12300
C 	C 	0.23182 0.13427 0.26925 0.77400
H 	H 	0.21886 0.21952 0.26747 0.14600
F 	F 	0.04774 0.23829 0.24755 -0.31700
F 	F 	0.12597 0.30133 0.22966 -0.35000
F 	F 	0.07144 0.32275 0.25287 -0.38700
F 	F 	0.29048 0.31202 0.30747 -0.37600
F 	F 	0.26197 0.31169 0.35281 -0.34500
F 	F 	0.29478 0.38419 0.32552 -0.34000
F 	F 	0.21149 0.14158 0.24370 -0.35600
F 	F 	0.20833 0.08088 0.27366 -0.43100
F 	F 	0.28657 0.15612 0.26629 -0.39200
F 	F 	0.11874 0.16257 0.37962 -0.36100
F 	F 	0.09049 0.19044 0.34228 -0.37000
F 	F 	0.16048 0.24812 0.36901 -0.36600
C 	C 	0.09741 0.66280 0.32628 0.04800
C 	C 	0.09747 0.67430 0.35568 0.10300
C 	C 	0.07574 0.63313 0.37615 -0.07600
C 	C 	0.06054 0.58196 0.36705 0.10200
C 	C 	0.06133 0.57048 0.33761 0.03400
C 	C 	0.07561 0.61074 0.31681 -0.04400
C 	C 	0.11967 0.72975 0.36465 0.10300
C 	C 	0.06561 0.64303 0.40712 0.79200
H 	H 	0.04779 0.55085 0.38282 0.12400
C 	C 	0.06564 0.59857 0.28480 0.78200
H 	H 	0.11330 0.69448 0.31070 0.14200
C 	C 	0.17518 0.76249 0.36992 -0.08100
C 	C 	0.19593 0.81672 0.37316 0.08600
C 	C 	0.16303 0.83875 0.36928 0.04300
C 	C 	0.10679 0.80515 0.36970 -0.04500
C 	C 	0.08580 0.75114 0.36523 0.05300
C 	C 	0.21331 0.74107 0.36824 0.78800
H 	H 	0.23869 0.84248 0.37539 0.14100
C 	C 	0.06934 0.82574 0.37666 0.78800
H 	H 	0.04323 0.72581 0.36180 0.14600
F 	F 	0.10537 0.59076 0.27338 -0.35000
F 	F 	0.06574 0.63932 0.26991 -0.34700
F 	F 	0.01621 0.55442 0.28049 -0.35000
F 	F 	0.02868 0.65983 0.40738 -0.36700
F 	F 	0.11254 0.68088 0.41978 -0.33600
F 	F 	0.04556 0.59822 0.42380 -0.33900
F 	F 	0.01980 0.78576 0.38555 -0.35400
F 	F 	0.06207 0.84888 0.35247 -0.41100
F 	F 	0.09020 0.86197 0.39884 -0.36900
F 	F 	0.26349 0.77668 0.37879 -0.36800
F 	F 	0.21869 0.73025 0.33977 -0.38400
F 	F 	0.19433 0.69579 0.38435 -0.34100
C 	C 	0.37885 0.06678 0.19562 0.04300
C 	C 	0.34552 0.07774 0.17858 0.10500
C 	C 	0.30620 0.08595 0.19192 -0.08100
C 	C 	0.29706 0.07702 0.22172 0.08900
C 	C 	0.32938 0.06472 0.23882 0.03300
C 	C 	0.37162 0.06054 0.22576 -0.05000
C 	C 	0.34630 0.07202 0.14679 0.09400
C 	C 	0.26986 0.09860 0.17414 0.78800
H 	H 	0.26294 0.07693 0.23138 0.15400
C 	C 	0.40565 0.04460 0.24330 0.78400
H 	H 	0.40858 0.06034 0.18508 0.14400
C 	C 	0.38645 0.11194 0.12940 -0.07300
C 	C 	0.38845 0.10245 0.09975 0.08300
C 	C 	0.35061 0.05483 0.08729 0.02000
C 	C 	0.30720 0.01758 0.10407 -0.04100
C 	C 	0.30741 0.02520 0.13401 0.05200
C 	C 	0.42978 0.16270 0.14269 0.78900
H 	H 	0.42046 0.13137 0.08653 0.14100
C 	C 	0.26146 0.96894 0.09041 0.77500
H 	H 	0.27727 0.99465 0.14752 0.13300
F 	F 	0.44479 0.04329 0.22660 -0.35800
F 	F 	0.37352 0.99518 0.25462 -0.41700
F 	F 	0.43107 0.07986 0.26548 -0.37400
F 	F 	0.22874 0.05299 0.16252 -0.36600
F 	F 	0.29779 0.13305 0.15200 -0.34200
F 	F 	0.24789 0.12169 0.19109 -0.33000
F 	F 	0.21624 0.94820 0.10768 -0.34900
F 	F 	0.27633 0.93146 0.08676 -0.38900
F 	F 	0.24799 0.98067 0.06387 -0.38200
F 	F 	0.45716 0.20029 0.12175 -0.32600
F 	F 	0.46600 0.15341 0.15726 -0.37400
F 	F 	0.40790 0.18292 0.16180 -0.34100
C 	C 	0.20374 0.80071 0.96602 0.05700
C 	C 	0.19372 0.76308 0.98721 0.10300
C 	C 	0.21479 0.77903 0.01542 -0.07500
C 	C 	0.24838 0.83268 0.02116 0.09800
C 	C 	0.25963 0.87030 0.99965 0.05200
C 	C 	0.23374 0.85435 0.97246 -0.04400
C 	C 	0.16284 0.70697 0.97923 0.10600
C 	C 	0.20548 0.73897 0.03866 0.79000
H 	H 	0.26784 0.84521 0.04200 0.14100
C 	C 	0.24018 0.89404 0.94975 0.78500
H 	H 	0.18835 0.78798 0.94438 0.15400
C 	C 	0.10617 0.67990 0.97828 -0.09000
C 	C 	0.07853 0.62617 0.97178 0.09000
C 	C 	0.10628 0.59893 0.96769 0.02400
C 	C 	0.16268 0.62748 0.96449 -0.03900
C 	C 	0.19056 0.68104 0.97142 0.04400
C 	C 	0.07519 0.70841 0.98334 0.79100
H 	H 	0.03533 0.60494 0.97127 0.10500
C 	C 	0.19354 0.60142 0.95402 0.78000
H 	H 	0.23394 0.70259 0.97097 0.15200
F 	F 	0.20440 0.87086 0.92719 -0.34400
F 	F 	0.29133 0.91722 0.93864 -0.40200
F 	F 	0.23088 0.93172 0.96165 -0.38200
F 	F 	0.23535 0.71538 0.03246 -0.37500
F 	F 	0.15195 0.70107 0.04007 -0.36400
F 	F 	0.22039 0.76204 0.06567 -0.35000
F 	F 	0.23939 0.63700 0.93946 -0.33900
F 	F 	0.16307 0.56081 0.93518 -0.34600
F 	F 	0.20827 0.58228 0.97740 -0.36600
F 	F 	0.02075 0.67392 0.98568 -0.37000
F 	F 	0.08351 0.74166 0.96042 -0.36100
F 	F 	0.09177 0.73723 0.00861 -0.35800
C 	C 	0.63924 0.22212 0.03981 0.05500
C 	C 	0.67672 0.20528 0.03925 0.09900
C 	C 	0.66114 0.15390 0.04835 -0.08100
C 	C 	0.60618 0.11675 0.04983 0.09300
C 	C 	0.56798 0.13186 0.04429 0.02300
C 	C 	0.58479 0.18580 0.04361 -0.05400
C 	C 	0.73089 0.24061 0.02761 0.10700
C 	C 	0.70258 0.13869 0.05612 0.79000
H 	H 	0.59322 0.07560 0.05239 0.12400
C 	C 	0.54638 0.20555 0.04917 0.78600
H 	H 	0.65221 0.26314 0.03648 0.14500
C 	C 	0.74337 0.23784 0.99826 -0.09000
C 	C 	0.76835 0.28084 0.04522 0.04500
C 	C 	0.70010 0.20239 0.97700 0.78900
H 	H 	0.75708 0.28473 0.06703 0.15700
F 	F 	0.55929 0.23193 0.07525 -0.33700
F 	F 	0.49379 0.16568 0.05050 -0.44200
F 	F 	0.55113 0.23969 0.02741 -0.37700
F 	F 	0.74098 0.17614 0.07406 -0.36900
F 	F 	0.72708 0.13466 0.03136 -0.35600
F 	F 	0.67953 0.09119 0.07048 -0.35100
F 	F 	0.71984 0.20840 0.94914 -0.36600
F 	F 	0.65951 0.21437 0.97676 -0.39000
F 	F 	0.67911 0.15058 0.98479 -0.37400
C 	C 	0.48420 0.29872 0.99648 0.05000
C 	C 	0.46443 0.30106 0.02383 0.10700
C 	C 	0.42912 0.25409 0.03858 -0.08100
C 	C 	0.41603 0.20574 0.02590 0.10000
C 	C 	0.43837 0.20363 0.99937 0.03500
C 	C 	0.47084 0.25031 0.98382 -0.03000
C 	C 	0.48045 0.35319 0.03647 0.10600
C 	C 	0.40287 0.25517 0.06690 0.79400
H 	H 	0.38923 0.16961 0.03694 0.10700
C 	C 	0.49306 0.24883 0.95430 0.77700
H 	H 	0.51061 0.33485 0.98527 0.14100
C 	C 	0.53216 0.38490 0.04843 -0.09100
C 	C 	0.55099 0.43850 0.05295 0.08700
C 	C 	0.51829 0.46000 0.04686 0.01800
C 	C 	0.46302 0.42549 0.04181 -0.04000
C 	C 	0.44593 0.37354 0.03375 0.05100
C 	C 	0.56895 0.36299 0.05409 0.79200
H 	H 	0.59242 0.46429 0.05895 0.11200
C 	C 	0.42191 0.44230 0.04691 0.78600
H 	H 	0.40599 0.34908 0.02518 0.15100
F 	F 	0.51330 0.29632 0.94013 -0.35600
F 	F 	0.45324 0.21099 0.93713 -0.36000
F 	F 	0.53382 0.23750 0.95748 -0.36100
F 	F 	0.36479 0.26943 0.06159 -0.37000
F 	F 	0.44044 0.29048 0.08600 -0.33900
F 	F 	0.37787 0.20663 0.08018 -0.36300
F 	F 	0.37174 0.39934 0.05180 -0.35200
F 	F 	0.41883 0.46877 0.02304 -0.40500
F 	F 	0.43545 0.47426 0.07100 -0.36900
F 	F 	0.61037 0.39518 0.07245 -0.34900
F 	F 	0.59059 0.35860 0.02830 -0.36900
F 	F 	0.54105 0.31435 0.06696 -0.33100
C 	C 	0.46648 0.85254 0.96535 0.05500
C 	C 	0.52144 0.87098 0.96745 0.09700
C 	C 	0.55829 0.92429 0.96164 -0.07700
C 	C 	0.53918 0.95970 0.95943 0.07900
C 	C 	0.48440 0.94214 0.96251 0.03300
C 	C 	0.44743 0.88764 0.96224 -0.05400
C 	C 	0.53971 0.83463 0.97708 0.10100
C 	C 	0.61767 0.94352 0.95851 0.78800
H 	H 	0.56713 0.00135 0.95795 0.13500
C 	C 	0.38763 0.86625 0.96091 0.78100
H 	H 	0.43838 0.81103 0.96774 0.13900
C 	C 	0.54294 0.82526 0.00688 -0.08000
C 	C 	0.55784 0.78839 0.01505 0.08300
C 	C 	0.56931 0.76095 0.99415 0.03500
C 	C 	0.56299 0.76826 0.96442 -0.05500
C 	C 	0.54947 0.80602 0.95626 0.05000
C 	C 	0.52757 0.85216 0.02990 0.78800
H 	H 	0.56106 0.78128 0.03771 0.15600
C 	C 	0.57268 0.73761 0.94128 0.77900
H 	H 	0.54614 0.81308 0.93358 0.15400
F 	F 	0.36625 0.85129 0.98830 -0.40600
F 	F 	0.36413 0.82287 0.94301 -0.36200
F 	F 	0.37532 0.90259 0.95016 -0.41400
F 	F 	0.62559 0.91576 0.93689 -0.37100
F 	F 	0.63779 0.93658 0.98419 -0.35400
F 	F 	0.64633 0.99609 0.95135 -0.35400
F 	F 	0.54954 0.73872 0.91530 -0.35800
F 	F 	0.55071 0.68582 0.94937 -0.46200
F 	F 	0.62713 0.75927 0.93707 -0.39500
F 	F 	0.53951 0.84263 0.05742 -0.35000
F 	F 	0.47318 0.83383 0.02854 -0.38800
F 	F 	0.55494 0.90573 0.02573 -0.37300
C 	C 	0.40977 0.00291 0.79969 0.04700
C 	C 	0.35925 0.97574 0.81279 0.10100
C 	C 	0.31311 0.94713 0.79536 -0.09100
C 	C 	0.31782 0.95378 0.76519 0.08900
C 	C 	0.36790 0.98563 0.75238 0.01600
C 	C 	0.41465 0.00557 0.76947 -0.03800
C 	C 	0.35461 0.98441 0.84398 0.09400
C 	C 	0.25818 0.91385 0.80875 0.79100
H 	H 	0.28214 0.93736 0.75187 0.10700
C 	C 	0.46973 0.03436 0.75576 0.77700
H 	H 	0.44501 0.02447 0.81306 0.14300
C 	C 	0.37406 0.96378 0.86536 -0.07800
C 	C 	0.38111 0.98309 0.89372 0.07900
C 	C 	0.36404 0.01818 0.90171 0.05500
C 	C 	0.34081 0.03582 0.88087 -0.04400
C 	C 	0.33724 0.01937 0.85200 0.05400
C 	C 	0.39134 0.92434 0.85775 0.78700
H 	H 	0.40059 0.97135 0.90960 0.12600
C 	C 	0.32076 0.07278 0.88927 0.78000
H 	H 	0.32269 0.03509 0.83546 0.14500
F 	F 	0.50841 0.03689 0.77444 -0.34600
F 	F 	0.48213 0.08476 0.74882 -0.39300
F 	F 	0.47115 0.00886 0.73098 -0.35600
F 	F 	0.23676 0.94516 0.81567 -0.37000
F 	F 	0.26097 0.88897 0.83346 -0.34500
F 	F 	0.22404 0.87558 0.78961 -0.36000
F 	F 	0.30090 0.08661 0.86573 -0.34800
F 	F 	0.36213 0.11810 0.90106 -0.35700
F 	F 	0.28010 0.04887 0.90938 -0.34700
F 	F 	0.39020 0.89614 0.88191 -0.35100
F 	F 	0.44296 0.95034 0.84704 -0.38100
F 	F 	0.35770 0.88890 0.83733 -0.34800
C 	C 	0.58458 0.06115 0.63016 0.04900
C 	C 	0.62819 0.10938 0.63835 0.10600
C 	C 	0.61981 0.14319 0.65673 -0.08600
C 	C 	0.56712 0.12943 0.66434 0.10000
C 	C 	0.52400 0.08009 0.65706 0.03700
C 	C 	0.53413 0.04353 0.64260 -0.02000
C 	C 	0.68264 0.12328 0.62846 0.10200
C 	C 	0.66636 0.19480 0.66714 0.79500
H 	H 	0.55952 0.15733 0.67552 0.12600
C 	C 	0.49294 0.98557 0.64172 0.77300
H 	H 	0.59066 0.03602 0.61543 0.15200
C 	C 	0.71090 0.10076 0.64149 -0.09000
C 	C 	0.76519 0.12099 0.63460 0.09000
C 	C 	0.79229 0.16590 0.61747 0.01800
C 	C 	0.76267 0.18353 0.60145 -0.03700
C 	C 	0.70769 0.16170 0.60706 0.04800
C 	C 	0.68362 0.05569 0.66278 0.79300
H 	H 	0.78773 0.10505 0.64479 0.11200
C 	C 	0.79026 0.22879 0.58045 0.78200
H 	H 	0.68508 0.17682 0.59609 0.15100
F 	F 	0.51789 0.95599 0.63977 -0.33800
F 	F 	0.46019 0.97483 0.61790 -0.37100
F 	F 	0.46208 0.97025 0.66656 -0.37900
F 	F 	0.68531 0.23022 0.64457 -0.35900
F 	F 	0.70724 0.18770 0.67747 -0.36400
F 	F 	0.65100 0.21593 0.68935 -0.34300
F 	F 	0.75480 0.22672 0.55966 -0.34300
F 	F 	0.83183 0.22728 0.56641 -0.39200
F 	F 	0.81031 0.27550 0.59535 -0.36700
F 	F 	0.72001 0.04494 0.67596 -0.35800
F 	F 	0.64655 0.01107 0.64843 -0.35700
F 	F 	0.65818 0.06765 0.68429 -0.35500
C 	C 	0.18537 0.26818 0.68967 0.05600
C 	C 	0.17886 0.22115 0.67856 0.10300
C 	C 	0.14011 0.19422 0.65675 -0.07000
C 	C 	0.10813 0.21483 0.64704 0.09900
C 	C 	0.11601 0.26291 0.65757 0.04900
C 	C 	0.15970 0.29266 0.67654 -0.03100
C 	C 	0.21646 0.20320 0.68774 0.10600
C 	C 	0.13109 0.14243 0.64474 0.79200
H 	H 	0.07663 0.19319 0.63149 0.13900
C 	C 	0.18360 0.35137 0.68008 0.78100
H 	H 	0.21406 0.28798 0.70685 0.15000
C 	C 	0.26780 0.22419 0.67492 -0.09100
C 	C 	0.29775 0.19925 0.67977 0.09500
C 	C 	0.27697 0.15362 0.69644 0.01600
C 	C 	0.23000 0.13784 0.71280 -0.03800
C 	C 	0.19939 0.16224 0.70786 0.04500
C 	C 	0.29060 0.27287 0.65604 0.79300
H 	H 	0.33565 0.21327 0.66906 0.09000
C 	C 	0.21234 0.09484 0.73516 0.78300
H 	H 	0.16128 0.14803 0.71867 0.16000
F 	F 	0.18057 0.37400 0.65449 -0.35900
F 	F 	0.23716 0.37493 0.68759 -0.33500
F 	F 	0.11036 0.10470 0.66612 -0.35900
F 	F 	0.17877 0.14763 0.63491 -0.37500
F 	F 	0.09553 0.12523 0.62180 -0.34700
F 	F 	0.17434 0.09419 0.75369 -0.34300
F 	F 	0.25575 0.10246 0.75156 -0.37600
F 	F 	0.19071 0.04689 0.72150 -0.37300
F 	F 	0.33943 0.28479 0.64413 -0.39100
F 	F 	0.29827 0.31521 0.67246 -0.37100
F 	F 	0.25596 0.26554 0.63356 -0.36100
C 	C 	0.01867 0.80730 0.68885 0.17200
C 	C 	0.07665 0.84424 0.68598 0.07400
H 	H 	0.02362 0.79682 0.73452 0.17700
C 	C 	0.09703 0.89896 0.68703 -0.06600
C 	C 	0.14879 0.93289 0.67638 0.08000
C 	C 	0.17999 0.91298 0.66492 0.03100
C 	C 	0.15897 0.85808 0.66369 -0.04400
C 	C 	0.10972 0.82488 0.67699 0.05800
C 	C 	0.06352 0.92097 0.69937 0.78700
H 	H 	0.16520 0.97487 0.67722 0.12700
C 	C 	0.18814 0.83452 0.64792 0.78200
H 	H 	0.09469 0.78309 0.67780 0.14800
F 	F 	0.03744 0.78380 0.62782 -0.35500
F 	F 	0.04026 0.86131 0.63153 -0.37300
F 	F 	0.15280 0.78367 0.63935 -0.33700
F 	F 	0.22581 0.83385 0.66606 -0.37400
F 	F 	0.21318 0.86294 0.62331 -0.37200
F 	F 	0.09109 0.97511 0.69954 -0.34100
F 	F 	0.04919 0.90389 0.72751 -0.36100
F 	F 	0.01772 0.90441 0.68304 -0.36200
C 	C 	0.46416 0.31479 0.62740 0.04700
C 	C 	0.48466 0.33497 0.65486 0.11000
C 	C 	0.47171 0.30082 0.67867 -0.09400
C 	C 	0.44669 0.24693 0.67363 0.09500
C 	C 	0.42800 0.22636 0.64599 -0.01000
C 	C 	0.43496 0.26036 0.62273 -0.01900
C 	C 	0.52139 0.39167 0.65832 0.10300
C 	C 	0.48393 0.32175 0.70943 0.79000
H 	H 	0.44112 0.22060 0.69127 0.07600
C 	C 	0.40980 0.23892 0.59343 0.77700
H 	H 	0.47185 0.34161 0.60967 0.15100
C 	C 	0.57751 0.41290 0.65730 -0.09000
C 	C 	0.61118 0.46499 0.66594 0.08700
C 	C 	0.58981 0.49615 0.67473 0.03200
C 	C 	0.53347 0.47473 0.67564 -0.02800
C 	C 	0.50015 0.42364 0.66550 0.04400
C 	C 	0.60144 0.38077 0.64593 0.79500
H 	H 	0.65425 0.48200 0.66512 0.09500
C 	C 	0.50853 0.50621 0.68666 0.77700
H 	H 	0.45719 0.40758 0.66469 0.15800
F 	F 	0.42492 0.20408 0.58345 -0.35400
F 	F 	0.42537 0.27826 0.57307 -0.34700
F 	F 	0.35468 0.21354 0.59585 -0.35600
F 	F 	0.46021 0.35162 0.71480 -0.37300
F 	F 	0.53858 0.35228 0.71336 -0.36100
F 	F 	0.46448 0.28173 0.72959 -0.37300
F 	F 	0.50822 0.53792 0.66478 -0.34700
F 	F 	0.53656 0.53683 0.71006 -0.34800
F 	F 	0.45630 0.47356 0.69558 -0.33500
F 	F 	0.65674 0.40908 0.64616 -0.37200
F 	F 	0.58482 0.36554 0.61779 -0.37000
F 	F 	0.58538 0.33674 0.66280 -0.36400
C 	C 	0.37902 0.07722 0.45921 0.05600
C 	C 	0.34126 0.05656 0.48161 0.10400
C 	C 	0.29187 0.05528 0.47827 -0.08300
C 	C 	0.27471 0.05775 0.45018 0.09600
C 	C 	0.31082 0.07290 0.42692 0.04000
C 	C 	0.36558 0.09173 0.43296 -0.03700
C 	C 	0.35438 0.03815 0.50857 0.10900
C 	C 	0.26071 0.05723 0.50423 0.78900
H 	H 	0.23379 0.04841 0.44647 0.12500
C 	C 	0.40932 0.13266 0.41395 0.78500
H 	H 	0.41884 0.08305 0.46243 0.13900
C 	C 	0.32172 0.98634 0.51872 -0.08900
C 	C 	0.32086 0.97677 0.54859 0.08700
C 	C 	0.35883 0.01575 0.56679 0.04400
C 	C 	0.40241 0.06023 0.55409 -0.04700
C 	C 	0.39719 0.07382 0.52573 0.04800
C 	C 	0.29154 0.94119 0.49793 0.79000
H 	H 	0.28971 0.94030 0.55768 0.14200
C 	C 	0.45425 0.09223 0.57047 0.78100
H 	H 	0.42542 0.11220 0.51732 0.13900
F 	F 	0.41472 0.10992 0.38908 -0.38200
F 	F 	0.45812 0.15683 0.42813 -0.35500
F 	F 	0.39711 0.17095 0.40667 -0.37200
F 	F 	0.29515 0.08738 0.52606 -0.38300
F 	F 	0.22718 0.00741 0.51458 -0.35300
F 	F 	0.22991 0.07935 0.49677 -0.35600
F 	F 	0.49627 0.12130 0.55173 -0.36600
F 	F 	0.46640 0.05945 0.58590 -0.38800
F 	F 	0.44966 0.12599 0.58936 -0.37900
F 	F 	0.28625 0.89548 0.50934 -0.34700
F 	F 	0.31873 0.95084 0.47199 -0.36700
F 	F 	0.24112 0.93376 0.49273 -0.34800
Ni	Ni	0.00126 0.35114 0.99586 1.13700
O 	O 	0.02326 0.35249 0.03899 -0.27900
O 	O 	0.01918 0.42153 0.99124 -0.71600
F 	F 	0.80234 0.71084 0.99411 -0.36600
H 	H 	0.83797 0.92394 0.73089 0.15400
F 	F 	0.96219 0.64143 0.65252 -0.36700
F 	F 	0.94859 0.47660 0.56919 -0.34600
F 	F 	0.15694 0.36150 0.70169 -0.36000
O 	O 	0.01791 0.42385 0.05343 -0.27400
C 	C 	0.03047 0.38091 0.51742 0.07000
H 	H 	0.05844 0.39016 0.49976 0.13500
F 	F 	0.12875 0.39016 0.52641 -0.35700
O 	O 	0.02408 0.51311 0.02752 -0.27900
C 	C 	0.09514 0.37070 0.55012 0.78400
C 	C 	0.81833 0.82501 0.72444 0.78400
C 	C 	0.04197 0.36815 0.54481 -0.05700
F 	F 	0.70208 0.10339 0.32888 -0.33900
C 	C 	0.79613 0.27051 0.98856 0.09000
F 	F 	0.83304 0.36770 0.07772 -0.34400
F 	F 	0.85340 0.99224 0.63045 -0.39800
C 	C 	0.81891 0.31762 0.03438 -0.05300
C 	C 	0.81453 0.33055 0.67633 0.78400
F 	F 	0.97092 0.49800 0.19756 -0.34400
F 	F 	0.94847 0.55308 0.10378 -0.34900
F 	F 	0.82577 0.84496 0.75221 -0.35400
H 	H 	0.80146 0.41405 0.66529 0.14600
C 	C 	0.84872 0.71734 0.69835 0.36100
O 	O 	0.82203 0.66741 0.70531 -0.27100
O 	O 	0.81836 0.65615 0.64397 -0.30100
O 	O 	0.82424 0.73733 0.68449 -0.33200
C 	C 	0.92609 0.35788 0.65335 0.30900
C 	C 	0.91242 0.15716 0.67817 0.30800
Ni	Ni	0.96241 0.22532 0.62751 1.13700
Ni	Ni	0.90225 0.25475 0.67530 1.14600
O 	O 	0.94065 0.27314 0.71375 -0.28000
O 	O 	0.88271 0.18258 0.61964 -0.31800
O 	O 	0.96585 0.27272 0.59502 -0.32600
O 	O 	0.88024 0.17764 0.67965 -0.32900
O 	O 	0.91051 0.32736 0.67614 -0.28800
O 	O 	0.95069 0.17270 0.65820 -0.30300
O 	O 	0.86428 0.24344 0.63763 -0.30900
C 	C 	0.89098 0.33679 0.99772 0.31700
O 	O 	0.92353 0.32394 0.01021 -0.31300
O 	O 	0.90544 0.36422 0.97371 -0.32500
C 	C 	0.87654 0.31550 0.13604 0.79400
H 	H 	0.91523 0.32209 0.08152 0.12700
F 	F 	0.87255 0.35971 0.14061 -0.35600
F 	F 	0.86212 0.28596 0.16106 -0.35100
F 	F 	0.84043 0.28557 0.11473 -0.35600
F 	F 	0.94551 0.47053 0.24286 -0.35100
C 	C 	0.03191 0.26372 0.75186 0.80100
C 	C 	0.92100 0.25467 0.84502 0.79000
H 	H 	0.93170 0.28239 0.90212 0.12400
F 	F 	0.98421 0.21817 0.74651 -0.39000
F 	F 	0.06325 0.25195 0.76943 -0.36200
F 	F 	0.88108 0.22399 0.86451 -0.36100
F 	F 	0.94201 0.22515 0.83408 -0.38400
F 	F 	0.89773 0.26761 0.82279 -0.36600
C 	C 	0.88852 0.28848 0.42073 0.77900
F 	F 	0.86048 0.29840 0.39986 -0.38500
F 	F 	0.85154 0.25150 0.43947 -0.35300
F 	F 	0.85645 0.31794 0.51695 -0.35600
C 	C 	0.77439 0.06853 0.31798 0.09900
C 	C 	0.74352 0.03818 0.29418 -0.07500
C 	C 	0.80928 0.12599 0.31575 0.10700
C 	C 	0.73977 0.06412 0.26662 0.78900
C 	C 	0.79705 0.16023 0.33116 -0.08600
C 	C 	0.83751 0.21239 0.33564 0.08800
C 	C 	0.86041 0.14527 0.30385 0.04500
C 	C 	0.74321 0.14007 0.34585 0.79400
H 	H 	0.82906 0.23854 0.34809 0.14300
H 	H 	0.86936 0.11852 0.29239 0.15200
F 	F 	0.78658 0.08217 0.25100 -0.36500
F 	F 	0.73205 0.10571 0.27280 -0.34600
F 	F 	0.69741 0.02926 0.24957 -0.34800
F 	F 	0.73291 0.18040 0.35105 -0.34200
C 	C 	0.90318 0.56353 0.05390 0.04600
C 	C 	0.88163 0.57224 0.02874 0.10800
C 	C 	0.90096 0.56791 0.00138 -0.08000
C 	C 	0.93913 0.54438 0.05214 -0.02200
C 	C 	0.88503 0.58524 0.97401 0.79200
C 	C 	0.96207 0.53492 0.07947 0.76400
H 	H 	0.89022 0.66665 0.03371 0.15200
F 	F 	0.01730 0.56072 0.07768 -0.35100
F 	F 	0.94283 0.48191 0.08289 -0.35100
F 	F 	0.89950 0.63740 0.97623 -0.35800
F 	F 	0.83035 0.55552 0.96986 -0.37100
C 	C 	0.89547 0.10674 0.69318 0.03800
C 	C 	0.92712 0.08241 0.69174 -0.04600
C 	C 	0.90137 0.02770 0.69047 0.06000
H 	H 	0.92407 0.00851 0.68542 0.13700
F 	F 	0.86605 0.82989 0.71500 -0.38600
C 	C 	0.88048 0.54302 0.64108 0.04400
C 	C 	0.84399 0.49493 0.62875 0.09800
C 	C 	0.79477 0.48722 0.61774 -0.08100
C 	C 	0.78050 0.52583 0.62275 0.08500
C 	C 	0.81640 0.57332 0.63631 0.02500
C 	C 	0.86896 0.58379 0.64274 -0.05000
C 	C 	0.85593 0.45158 0.62999 0.10800
C 	C 	0.75668 0.43728 0.60170 0.79200
H 	H 	0.74063 0.51806 0.61738 0.10800
H 	H 	0.91771 0.54831 0.64980 0.13700
C 	C 	0.89603 0.38416 0.64325 0.02100
C 	C 	0.84881 0.37730 0.65711 -0.03900
C 	C 	0.83230 0.41405 0.65192 0.04200
F 	F 	0.73366 0.39583 0.62084 -0.34700
F 	F 	0.71627 0.44155 0.58816 -0.34700
F 	F 	0.80850 0.28512 0.66420 -0.38800
C 	C 	0.92069 0.86204 0.30999 0.11000
C 	C 	0.87613 0.84047 0.29119 -0.09100
C 	C 	0.82507 0.82445 0.30257 0.09400
C 	C 	0.81669 0.82276 0.33259 0.02600
C 	C 	0.86091 0.83864 0.35161 -0.03800
C 	C 	0.91280 0.86109 0.33992 0.04000
C 	C 	0.88256 0.83219 0.25932 0.79400
H 	H 	0.79127 0.81189 0.28813 0.10100
C 	C 	0.85364 0.83286 0.38416 0.78100
F 	F 	0.89901 0.83840 0.39765 -0.35100
F 	F 	0.84394 0.87118 0.39470 -0.33000
F 	F 	0.83418 0.80996 0.24481 -0.36100
F 	F 	0.90300 0.79892 0.25643 -0.37500
C 	C 	0.83427 0.30953 0.00659 0.01600
H 	H 	0.80781 0.26536 0.96709 0.11900
C 	C 	0.85096 0.36974 0.04974 0.78300
F 	F 	0.84570 0.40748 0.03483 -0.37700
F 	F 	0.90431 0.38427 0.05126 -0.42800
C 	C 	0.92950 0.76337 0.66831 0.14700
C 	C 	0.90734 0.74434 0.69566 0.00600
H 	H 	0.90308 0.75489 0.64999 0.07800
C 	C 	0.91798 0.73628 0.74981 0.76900
F 	F 	0.89355 0.68229 0.75027 -0.35900
F 	F 	0.88063 0.75097 0.75653 -0.34900
C 	C 	0.97514 0.34952 0.14794 0.08700
F 	F 	0.86903 0.36796 0.55597 -0.34600
F 	F 	0.08666 0.32118 0.55602 -0.37700
O 	O 	0.96794 0.27221 0.65752 -0.73400
C 	C 	0.95225 0.53286 0.02466 0.01400
C 	C 	0.93474 0.54657 0.99963 0.09300
C 	C 	0.98764 0.11368 0.69126 0.74600
C 	C 	0.89148 0.36486 0.53014 0.79100
C 	C 	0.98129 0.47610 0.22137 0.76700
C 	C 	0.98561 0.31772 0.71908 0.26500
O 	O 	0.97251 0.37134 0.64152 -0.34300
H 	H 	0.98330 0.26073 0.67292 0.18700
O 	O 	0.94459 0.45325 0.00750 -0.31400
C 	C 	0.02023 0.30333 0.76604 -0.06000
H 	H 	0.03749 0.28757 0.80916 0.14800
C 	C 	0.96527 0.30393 0.85911 -0.09600
C 	C 	0.96447 0.31127 0.88917 0.06100
F 	F 	0.05905 0.28299 0.72610 -0.39700
H 	H 	0.91462 0.30007 0.47792 0.14400
H 	H 	0.92581 0.34005 0.57911 0.11500
F 	F 	0.91708 0.26784 0.40781 -0.40900
C 	C 	0.88940 0.23074 0.32507 0.03300
C 	C 	0.90124 0.19693 0.30911 -0.05400
F 	F 	0.00835 0.08878 0.70769 -0.34100
F 	F 	0.00701 0.16342 0.70247 -0.37000
C 	C 	0.89711 0.45268 0.61284 -0.08500
C 	C 	0.91765 0.41997 0.62017 0.09600
F 	F 	0.78390 0.42644 0.58074 -0.32900
H 	H 	0.94730 0.87744 0.35411 0.14400
F 	F 	0.91699 0.87943 0.24624 -0.34700
C 	C 	0.94115 0.75629 0.71999 0.00800
F 	F 	0.96801 0.79180 0.61330 -0.37200
C 	C 	0.98983 0.36679 0.76330 0.05800
F 	F 	0.93005 0.24857 0.17106 -0.34900
C 	C 	0.93348 0.33177 0.12718 -0.08000
C 	C 	0.97346 0.49690 0.02152 0.31500
C 	C 	0.02355 0.30905 0.79630 0.05400
F 	F 	0.91005 0.57981 0.94981 -0.36800
F 	F 	0.89759 0.40571 0.51286 -0.33900
F 	F 	0.03292 0.51006 0.23056 -0.33500
C 	C 	0.94487 0.36756 0.53510 -0.06600
C 	C 	0.97557 0.42333 0.21440 -0.03700
C 	C 	0.96849 0.40586 0.18557 0.03300
H 	H 	0.96838 0.43062 0.16833 0.15400
C 	C 	0.00450 0.32135 0.59189 0.32000
O 	O 	0.00916 0.35491 0.69899 -0.27100
Ni	Ni	0.97117 0.43693 0.97158 1.13200
C 	C 	0.93003 0.28604 0.32970 0.30400
O 	O 	0.92268 0.32197 0.31664 -0.30900
C 	C 	0.94642 0.33483 0.09763 0.10400
C 	C 	0.00148 0.33134 0.74955 0.07500
C 	C 	0.93347 0.33719 0.46659 0.03900
C 	C 	0.92664 0.33843 0.43658 -0.05500
C 	C 	0.95573 0.35328 0.56216 0.05900
C 	C 	0.95817 0.21413 0.30013 0.78200
F 	F 	0.96063 0.17760 0.28241 -0.34600
H 	H 	0.94482 0.53741 0.97871 0.08200
F 	F 	0.00507 0.11713 0.66313 -0.38100
C 	C 	0.92407 0.49300 0.58898 0.79400
H 	H 	0.95210 0.42394 0.60860 0.10300
F 	F 	0.96265 0.53978 0.60089 -0.37400
F 	F 	0.88750 0.50130 0.57406 -0.33900
C 	C 	0.97603 0.88541 0.29870 0.08200
H 	H 	0.97346 0.81119 0.29713 0.14500
F 	F 	0.93699 0.95738 0.28542 -0.35700
C 	C 	0.98487 0.79300 0.66439 -0.13900
F 	F 	0.95709 0.75606 0.77099 -0.35100
O 	O 	0.94107 0.37582 0.36983 -0.28100
O 	O 	0.97636 0.33518 0.95237 -0.31600
C 	C 	0.00279 0.35139 0.56684 0.04000
C 	C 	0.00784 0.80769 0.63397 0.83100
Ni	Ni	0.96581 0.40066 0.32730 1.12700
F 	F 	0.98865 0.22068 0.32447 -0.39500
C 	C 	0.96707 0.38324 0.48187 0.10900
C 	C 	0.98165 0.37905 0.51215 0.07300
C 	C 	0.99840 0.85320 0.29470 0.04300
C 	C 	0.96631 0.35862 0.17847 0.10900
O 	O 	0.98857 0.41362 0.93410 -0.28400
C 	C 	0.99697 0.78723 0.71619 -0.01700
Ni	Ni	0.02144 0.34284 0.65536 1.14300
O 	O 	0.04408 0.25736 0.62740 -0.29000
C 	C 	0.99276 0.37103 0.93144 0.27300
C 	C 	0.00681 0.34058 0.81027 0.11200
C 	C 	0.00772 0.34291 0.84239 0.11300
C 	C 	0.00347 0.35767 0.90231 0.06000
F 	F 	0.97851 0.98056 0.32858 -0.38300
