data_crystal

_cell_length_a 48.04294
_cell_length_b 46.63235
_cell_length_c 42.67096
_cell_angle_alpha 89.96151
_cell_angle_beta  89.95982
_cell_angle_gamma 90.46388

_symmetry_space_group_name_	'P 1'
_symmetry_space_group_name_H-M	'P 1'

loop_
_symmetry_equiv_pos_as_xyz
  x,y,z

loop_
_atom_site_label
_atom_site_type_symbol
_atom_site_fract_x
_atom_site_fract_y
_atom_site_fract_z
_atom_site_charge
Zn	Zn	0.49437 0.51017 0.00634 1.22000
C 	C 	0.53066 0.55951 0.01149 0.33600
O 	O 	0.51009 0.48238 0.03579 -0.47600
O 	O 	0.51492 0.56713 0.03523 -0.45500
O 	O 	0.53385 0.51378 0.06633 -0.49600
C 	C 	0.45202 0.54559 0.03123 0.32700
O 	O 	0.46740 0.54083 0.00640 -0.45600
O 	O 	0.46137 0.53885 0.05919 -0.50700
C 	C 	0.53217 0.48877 0.05244 0.31900
O 	O 	0.45627 0.47911 0.99832 -0.32900
Zn	Zn	0.50124 0.53826 0.06856 1.16900
O 	O 	0.52764 0.53408 0.99850 -0.43700
C 	C 	0.46815 0.47268 0.97198 0.27800
O 	O 	0.49127 0.48628 0.96631 -0.38300
Zn	Zn	0.34557 0.18356 0.00047 1.22100
C 	C 	0.36275 0.18728 0.06533 0.32100
O 	O 	0.30488 0.17794 0.00007 -0.46500
O 	O 	0.35631 0.21463 0.06505 -0.44900
O 	O 	0.29835 0.19592 0.04903 -0.49700
C 	C 	0.36424 0.24171 0.99626 0.34700
O 	O 	0.37245 0.21509 0.99884 -0.45700
O 	O 	0.33975 0.24929 0.00680 -0.51300
C 	C 	0.28995 0.17974 0.02575 0.33600
O 	O 	0.34610 0.18435 0.94493 -0.32400
Zn	Zn	0.32173 0.22932 0.04144 1.17100
O 	O 	0.35351 0.17014 0.04314 -0.44100
C 	C 	0.35692 0.15900 0.94735 0.28000
O 	O 	0.36032 0.14978 0.97569 -0.38700
C 	C 	0.51948 0.00003 0.34099 0.14000
C 	C 	0.50374 0.02040 0.32473 -0.10600
H 	H 	0.49228 0.03646 0.33764 0.07000
C 	C 	0.50281 0.01994 0.29188 0.05300
C 	C 	0.51761 0.99901 0.27535 -0.08900
C 	C 	0.53328 0.97855 0.29155 0.05300
C 	C 	0.53426 0.97915 0.32439 -0.10700
H 	H 	0.54639 0.96342 0.33703 0.07000
N 	N 	0.52045 0.00053 0.37465 -0.18200
C 	C 	0.50265 0.98327 0.39146 0.19700
C 	C 	0.50391 0.98280 0.42443 -0.08200
C 	C 	0.52384 0.99984 0.43991 0.06100
C 	C 	0.54086 0.01854 0.42242 -0.08100
C 	C 	0.53914 0.01829 0.38947 0.19700
C 	C 	0.48490 0.96641 0.44204 0.01000
C 	C 	0.48636 0.96615 0.47470 -0.05800
C 	C 	0.50835 0.98045 0.49044 0.01500
C 	C 	0.52621 0.99877 0.47299 -0.02900
C 	C 	0.54557 0.01695 0.48844 0.01600
C 	C 	0.55852 0.03792 0.43802 0.01000
C 	C 	0.55996 0.03800 0.47068 -0.05800
C 	C 	0.51197 0.97800 0.52342 0.01500
C 	C 	0.53121 0.99628 0.53890 -0.02900
C 	C 	0.54905 0.01465 0.52148 0.01600
O 	O 	0.55574 0.03500 0.37278 -0.20500
O 	O 	0.48441 0.96692 0.37667 -0.20500
H 	H 	0.57046 0.05372 0.42497 0.04200
H 	H 	0.57107 0.05538 0.48193 0.04500
H 	H 	0.46832 0.95456 0.43056 0.04200
H 	H 	0.46952 0.95611 0.48753 0.04500
C 	C 	0.57081 0.02922 0.53734 -0.05800
C 	C 	0.57197 0.02923 0.57002 0.01000
C 	C 	0.55300 0.01273 0.58755 -0.08100
C 	C 	0.53345 0.99530 0.57199 0.06100
C 	C 	0.49783 0.95673 0.54109 -0.05800
C 	C 	0.49930 0.95669 0.57374 0.01000
C 	C 	0.51666 0.97632 0.58942 -0.08200
C 	C 	0.55389 0.01257 0.62054 0.19700
N 	N 	0.53633 0.99498 0.63727 -0.18200
C 	C 	0.51826 0.97661 0.62237 0.19700
C 	C 	0.53675 0.99592 0.67094 0.14000
C 	C 	0.55610 0.97956 0.68764 -0.10600
C 	C 	0.55629 0.98017 0.72052 0.05300
C 	C 	0.53688 0.99699 0.73661 -0.08900
C 	C 	0.51768 0.01362 0.71995 0.05300
C 	C 	0.51768 0.01306 0.68709 -0.10600
O 	O 	0.57146 0.02963 0.63543 -0.20400
O 	O 	0.50218 0.95932 0.63899 -0.20500
H 	H 	0.57098 0.96653 0.67507 0.07000
H 	H 	0.50294 0.02590 0.67408 0.07000
H 	H 	0.58771 0.03927 0.52463 0.04500
H 	H 	0.58834 0.04132 0.58159 0.04200
H 	H 	0.48688 0.93928 0.52974 0.04500
H 	H 	0.48756 0.94070 0.58674 0.04200
H 	H 	0.53667 0.99709 0.76203 0.05400
H 	H 	0.51713 0.99880 0.24994 0.05400
Zn	Zn	0.71689 0.81820 0.01258 1.22100
C 	C 	0.69670 0.81876 0.07646 0.32000
O 	O 	0.75729 0.82532 0.01497 -0.46800
O 	O 	0.70359 0.79157 0.07847 -0.45100
O 	O 	0.76172 0.81081 0.06556 -0.49700
C 	C 	0.69953 0.75948 0.01261 0.32700
O 	O 	0.69075 0.78604 0.01216 -0.45700
O 	O 	0.72400 0.75360 0.02449 -0.51200
C 	C 	0.77016 0.82683 0.04208 0.31600
O 	O 	0.72000 0.81266 0.95752 -0.32700
Zn	Zn	0.73976 0.77633 0.05850 1.16900
O 	O 	0.70594 0.83456 0.05306 -0.44100
C 	C 	0.70869 0.83784 0.95636 0.28000
O 	O 	0.70320 0.84937 0.98322 -0.38600
Zn	Zn	0.16641 0.68459 0.98880 1.22100
C 	C 	0.16074 0.67972 0.05603 0.32100
O 	O 	0.15648 0.72397 0.97665 -0.46500
O 	O 	0.18535 0.69181 0.05963 -0.45000
O 	O 	0.16328 0.74258 0.02527 -0.49600
C 	C 	0.22401 0.67499 0.00222 0.34700
O 	O 	0.19940 0.66278 0.00013 -0.45700
O 	O 	0.22624 0.70280 0.00601 -0.51500
C 	C 	0.15115 0.74364 0.99777 0.31600
O 	O 	0.17656 0.67383 0.93569 -0.32500
Zn	Zn	0.19908 0.72415 0.03029 1.17000
O 	O 	0.14725 0.68246 0.02942 -0.44200
C 	C 	0.15335 0.65937 0.93654 0.28000
O 	O 	0.14027 0.65971 0.96303 -0.38800
C 	C 	0.99626 0.48221 0.32087 0.14000
C 	C 	0.97859 0.46479 0.30281 -0.10600
H 	H 	0.96379 0.45059 0.31429 0.07000
C 	C 	0.97970 0.46611 0.27001 0.05300
C 	C 	0.99864 0.48480 0.25531 -0.08800
C 	C 	0.01643 0.50219 0.27331 0.05300
C 	C 	0.01527 0.50077 0.30612 -0.10700
H 	H 	0.02889 0.51422 0.32017 0.06900
N 	N 	0.99425 0.48175 0.35447 -0.18200
C 	C 	0.00918 0.46200 0.37118 0.19700
C 	C 	0.00801 0.46175 0.40416 -0.08200
C 	C 	0.99200 0.48238 0.41978 0.06200
C 	C 	0.97573 0.50148 0.40227 -0.08200
C 	C 	0.97735 0.50103 0.36933 0.19700
C 	C 	0.02173 0.44059 0.42155 0.01000
C 	C 	0.02039 0.44060 0.45422 -0.05800
C 	C 	0.00728 0.46329 0.47039 0.01500
C 	C 	0.99165 0.48339 0.45296 -0.02900
C 	C 	0.97475 0.50370 0.46844 0.01600
C 	C 	0.95738 0.51994 0.41778 0.01000
C 	C 	0.95603 0.52021 0.45043 -0.05900
C 	C 	0.00834 0.46553 0.50364 0.01500
C 	C 	0.99156 0.48598 0.51910 -0.02900
C 	C 	0.97593 0.50607 0.50165 0.01500
O 	O 	0.96270 0.51934 0.35268 -0.20600
O 	O 	0.02487 0.44335 0.35630 -0.20500
H 	H 	0.94340 0.53348 0.40458 0.04200
H 	H 	0.93947 0.53208 0.46142 0.04500
H 	H 	0.03267 0.42343 0.40981 0.04200
H 	H 	0.02824 0.42215 0.46659 0.04500
C 	C 	0.96306 0.52895 0.51772 -0.05800
C 	C 	0.96200 0.52926 0.55038 0.01000
C 	C 	0.97571 0.50815 0.56785 -0.08200
C 	C 	0.99138 0.48720 0.55228 0.06100
C 	C 	0.02686 0.44882 0.52169 -0.05800
C 	C 	0.02555 0.44919 0.55435 0.01000
C 	C 	0.00751 0.46800 0.56984 -0.08200
C 	C 	0.97496 0.50832 0.60084 0.19700
N 	N 	0.98986 0.48860 0.61762 -0.18200
C 	C 	0.00616 0.46876 0.60280 0.19700
C 	C 	0.98865 0.48900 0.65126 0.14100
C 	C 	0.00812 0.50518 0.66833 -0.10600
C 	C 	0.00670 0.50600 0.70115 0.05300
C 	C 	0.98573 0.49055 0.71684 -0.08800
C 	C 	0.96624 0.47431 0.69982 0.05300
C 	C 	0.96777 0.47353 0.66701 -0.10600
O 	O 	0.95978 0.52745 0.61568 -0.20500
O 	O 	0.02052 0.45025 0.61950 -0.20500
H 	H 	0.02426 0.51709 0.65607 0.07000
H 	H 	0.95270 0.46112 0.65372 0.07000
H 	H 	0.95515 0.54731 0.50522 0.04500
H 	H 	0.95127 0.54659 0.56205 0.04200
H 	H 	0.04329 0.43673 0.51076 0.04500
H 	H 	0.03939 0.43552 0.56757 0.04200
H 	H 	0.98454 0.49123 0.74221 0.05500
H 	H 	0.99934 0.48602 0.22993 0.05400
Zn	Zn	0.79072 0.31847 0.98256 1.22100
C 	C 	0.78859 0.32952 0.91623 0.32000
O 	O 	0.75323 0.32340 0.00014 -0.46900
O 	O 	0.77868 0.30350 0.91152 -0.44900
O 	O 	0.73070 0.31762 0.95376 -0.49400
C 	C 	0.80466 0.26170 0.96303 0.32700
O 	O 	0.81372 0.28824 0.96517 -0.45800
O 	O 	0.77782 0.25634 0.96147 -0.51000
C 	C 	0.73173 0.32835 0.98211 0.33600
O 	O 	0.80720 0.30459 0.03258 -0.32600
Zn	Zn	0.75203 0.28369 0.94297 1.16900
O 	O 	0.78687 0.34126 0.94416 -0.44200
C 	C 	0.81883 0.32982 0.03308 0.28000
O 	O 	0.81472 0.34552 0.00852 -0.38700
Zn	Zn	0.00837 0.02559 0.02767 1.22100
C 	C 	0.03884 0.97339 0.01728 0.33700
O 	O 	0.98056 0.01433 0.05927 -0.47100
O 	O 	0.05448 0.98176 0.04089 -0.45400
O 	O 	0.00371 0.97651 0.07968 -0.49800
C 	C 	0.06010 0.04804 0.05014 0.32800
O 	O 	0.04615 0.04059 0.02499 -0.45400
O 	O 	0.05271 0.03767 0.07755 -0.51000
C 	C 	0.98032 0.98855 0.07146 0.34000
O 	O 	0.99414 0.07357 0.03263 -0.32700
Zn	Zn	0.03802 0.99873 0.08142 1.17000
O 	O 	0.01612 0.98749 0.00992 -0.43500
C 	C 	0.98194 0.06967 0.00588 0.29500
O 	O 	0.98438 0.04431 0.99387 -0.38000
C 	C 	0.82467 0.23795 0.96209 -0.10300
C 	C 	0.81847 0.21185 0.97707 0.02200
C 	C 	0.83822 0.18999 0.97785 -0.07000
C 	C 	0.86425 0.19394 0.96343 0.03000
C 	C 	0.87007 0.21966 0.94753 -0.07000
C 	C 	0.85043 0.24160 0.94698 0.02300
C 	C 	0.88611 0.17207 0.96695 0.00000
C 	C 	0.91141 0.17924 0.98151 -0.03800
C 	C 	0.93148 0.15823 0.98656 -0.03300
C 	C 	0.92639 0.12986 0.97726 -0.00300
C 	C 	0.90141 0.12272 0.96209 -0.03400
C 	C 	0.88134 0.14378 0.95686 -0.03900
C 	C 	0.94579 0.10779 0.98574 0.04300
C 	C 	0.96223 0.08997 0.99414 -0.09200
H 	H 	0.79867 0.20877 0.98881 0.02800
H 	H 	0.83355 0.17026 0.99029 0.04700
H 	H 	0.88998 0.22281 0.93604 0.04800
H 	H 	0.85528 0.26148 0.93492 0.03500
H 	H 	0.91528 0.20097 0.98948 0.04100
H 	H 	0.95072 0.16388 0.99836 0.04200
H 	H 	0.89732 0.10082 0.95486 0.04200
H 	H 	0.86198 0.13806 0.94536 0.03900
C 	C 	0.84104 0.39997 0.79420 -0.03600
C 	C 	0.85275 0.38364 0.81839 -0.00200
C 	C 	0.88172 0.38037 0.81991 -0.03600
H 	H 	0.89093 0.36765 0.83840 0.03900
C 	C 	0.89891 0.39399 0.79796 -0.04200
C 	C 	0.88727 0.41093 0.77423 0.00700
C 	C 	0.85824 0.41357 0.77219 -0.04200
H 	H 	0.84905 0.42648 0.75384 0.04000
C 	C 	0.90556 0.42715 0.75267 0.00900
C 	C 	0.92441 0.41262 0.73333 -0.04300
C 	C 	0.94370 0.42805 0.71530 -0.03200
C 	C 	0.94425 0.45812 0.71645 -0.00900
C 	C 	0.92476 0.47266 0.73494 -0.03100
C 	C 	0.90552 0.45725 0.75301 -0.04300
C 	C 	0.83486 0.37109 0.84300 0.02900
C 	C 	0.81606 0.34891 0.83571 -0.07000
C 	C 	0.80037 0.33582 0.85945 0.02000
C 	C 	0.80339 0.34480 0.89073 -0.09600
C 	C 	0.82169 0.36758 0.89778 0.02000
C 	C 	0.83730 0.38063 0.87403 -0.06800
H 	H 	0.78609 0.31857 0.85355 0.02800
H 	H 	0.82428 0.37478 0.92174 0.03700
H 	H 	0.85160 0.39792 0.87981 0.04800
H 	H 	0.81394 0.34151 0.81176 0.04600
H 	H 	0.92447 0.38939 0.73274 0.04100
H 	H 	0.95863 0.41664 0.70103 0.04200
H 	H 	0.89106 0.46866 0.76787 0.04100
H 	H 	0.92488 0.49589 0.73577 0.04000
H 	H 	0.92129 0.39186 0.79977 0.04000
H 	H 	0.81868 0.40256 0.79281 0.03800
C 	C 	0.86801 0.38359 0.16390 -0.03700
C 	C 	0.88218 0.37166 0.13833 -0.00100
C 	C 	0.91138 0.37226 0.13766 -0.03700
H 	H 	0.92250 0.36293 0.11811 0.03900
C 	C 	0.92626 0.38564 0.16177 -0.04100
C 	C 	0.91206 0.39849 0.18678 0.00700
C 	C 	0.88290 0.39695 0.18804 -0.04100
H 	H 	0.87176 0.40664 0.20736 0.04000
C 	C 	0.92760 0.41537 0.21028 0.00900
C 	C 	0.94749 0.40210 0.22938 -0.04300
C 	C 	0.96394 0.41858 0.24967 -0.03200
C 	C 	0.96063 0.44842 0.25096 -0.00900
C 	C 	0.94017 0.46156 0.23256 -0.03200
C 	C 	0.92373 0.44511 0.21230 -0.04300
C 	C 	0.86647 0.36045 0.11126 0.02600
C 	C 	0.84939 0.33609 0.11453 -0.06400
C 	C 	0.83402 0.32589 0.08897 0.01100
C 	C 	0.83555 0.34006 0.05992 -0.07700
C 	C 	0.85283 0.36433 0.05669 0.01200
C 	C 	0.86819 0.37446 0.08223 -0.06400
H 	H 	0.82074 0.30719 0.09186 0.04000
H 	H 	0.85439 0.37537 0.03440 0.04000
H 	H 	0.88128 0.39333 0.07952 0.04600
H 	H 	0.84797 0.32511 0.13687 0.04700
H 	H 	0.95051 0.37914 0.22811 0.04100
H 	H 	0.97965 0.40826 0.26385 0.04100
H 	H 	0.90845 0.45555 0.19763 0.04000
H 	H 	0.93739 0.48458 0.23354 0.03900
H 	H 	0.94878 0.38670 0.16060 0.04000
H 	H 	0.84547 0.38316 0.16465 0.03900
C 	C 	0.13186 0.76717 0.99053 -0.10100
C 	C 	0.12986 0.77795 0.95986 0.01800
C 	C 	0.11353 0.80202 0.95371 -0.06900
C 	C 	0.09899 0.81541 0.97813 0.02800
C 	C 	0.10010 0.80390 0.00850 -0.07000
C 	C 	0.11642 0.77991 0.01466 0.01900
C 	C 	0.08483 0.84294 0.97272 0.00100
C 	C 	0.05656 0.84580 0.98036 -0.04100
C 	C 	0.04487 0.87307 0.98300 -0.03200
C 	C 	0.06133 0.89758 0.97785 -0.01000
C 	C 	0.08875 0.89462 0.96718 -0.03200
C 	C 	0.10049 0.86739 0.96464 -0.04100
C 	C 	0.05224 0.92489 0.98959 0.05200
C 	C 	0.04557 0.94735 0.00124 -0.11700
H 	H 	0.14157 0.76824 0.94100 0.03300
H 	H 	0.11269 0.81066 0.93016 0.04700
H 	H 	0.08897 0.81409 0.02751 0.04500
H 	H 	0.11738 0.77149 0.03830 0.03200
H 	H 	0.04411 0.82702 0.98601 0.04000
H 	H 	0.02353 0.87515 0.99088 0.03900
H 	H 	0.10153 0.91346 0.96278 0.03900
H 	H 	0.12224 0.86542 0.95830 0.03800
C 	C 	0.06174 0.59378 0.80045 -0.04100
C 	C 	0.07635 0.57493 0.78092 0.00700
C 	C 	0.10518 0.57171 0.78482 -0.04100
H 	H 	0.11669 0.55740 0.76970 0.04000
C 	C 	0.11906 0.58640 0.80882 -0.03700
C 	C 	0.10422 0.60444 0.82903 -0.00000
C 	C 	0.07563 0.60852 0.82434 -0.03700
H 	H 	0.06405 0.62258 0.83968 0.04000
C 	C 	0.11810 0.61736 0.85647 0.02600
C 	C 	0.13885 0.63839 0.85245 -0.06400
C 	C 	0.15087 0.65171 0.87859 0.01200
C 	C 	0.14216 0.64411 0.90895 -0.07700
C 	C 	0.12189 0.62253 0.91288 0.01200
C 	C 	0.10995 0.60923 0.88678 -0.06400
C 	C 	0.06111 0.55709 0.75797 0.00900
C 	C 	0.06094 0.52711 0.76097 -0.04300
C 	C 	0.04395 0.51034 0.74159 -0.03200
C 	C 	0.02687 0.52340 0.71915 -0.00900
C 	C 	0.02781 0.55330 0.71535 -0.03200
C 	C 	0.04492 0.57007 0.73463 -0.04300
H 	H 	0.04358 0.48726 0.74448 0.03900
H 	H 	0.01477 0.56357 0.69803 0.04200
H 	H 	0.04509 0.59317 0.73195 0.04100
H 	H 	0.07336 0.51688 0.77890 0.04100
H 	H 	0.14532 0.64474 0.82911 0.04700
H 	H 	0.16650 0.66829 0.87519 0.03900
H 	H 	0.09417 0.59277 0.89010 0.04700
H 	H 	0.11526 0.61615 0.93615 0.04000
H 	H 	0.14117 0.58320 0.81221 0.03900
H 	H 	0.03949 0.59640 0.79764 0.04000
C 	C 	0.11127 0.58234 0.19956 -0.04200
C 	C 	0.08209 0.58186 0.20140 0.00700
C 	C 	0.06650 0.59951 0.18148 -0.04200
H 	H 	0.04397 0.59928 0.18269 0.03900
C 	C 	0.07991 0.61678 0.15927 -0.03600
C 	C 	0.10901 0.61644 0.15662 -0.00300
C 	C 	0.12468 0.59953 0.17721 -0.03600
H 	H 	0.14717 0.59919 0.17540 0.03800
C 	C 	0.12288 0.63224 0.13096 0.03000
C 	C 	0.11696 0.62521 0.09970 -0.06900
C 	C 	0.12946 0.64058 0.07530 0.02200
C 	C 	0.14810 0.66314 0.08189 -0.09700
C 	C 	0.15433 0.66992 0.11321 0.02100
C 	C 	0.14174 0.65454 0.13764 -0.07100
C 	C 	0.06778 0.56152 0.22261 0.00900
C 	C 	0.04874 0.57157 0.24495 -0.04300
C 	C 	0.03266 0.55216 0.26236 -0.03200
C 	C 	0.03561 0.52255 0.25771 -0.00900
C 	C 	0.05553 0.51250 0.23640 -0.03200
C 	C 	0.07148 0.53189 0.21885 -0.04300
H 	H 	0.01739 0.56013 0.27881 0.04200
H 	H 	0.05816 0.48967 0.23288 0.03800
H 	H 	0.08614 0.52391 0.20170 0.04000
H 	H 	0.04592 0.59440 0.24824 0.04000
H 	H 	0.10264 0.60783 0.09433 0.04800
H 	H 	0.12476 0.63487 0.05126 0.03500
H 	H 	0.14641 0.66014 0.16172 0.04500
H 	H 	0.16859 0.68733 0.11865 0.02500
H 	H 	0.06765 0.62995 0.14365 0.03800
H 	H 	0.12351 0.56899 0.21501 0.03900
C 	C 	0.79355 0.84714 0.04648 -0.10100
C 	C 	0.79981 0.85767 0.07653 0.01900
C 	C 	0.82223 0.87652 0.08088 -0.07000
C 	C 	0.83862 0.88504 0.05526 0.02700
C 	C 	0.83223 0.87482 0.02516 -0.06900
C 	C 	0.80978 0.85597 0.02077 0.01800
C 	C 	0.86280 0.90422 0.06005 0.00200
C 	C 	0.88527 0.89523 0.07853 -0.04100
C 	C 	0.90846 0.91315 0.08254 -0.03100
C 	C 	0.90933 0.94015 0.06813 -0.01200
C 	C 	0.88676 0.94933 0.05003 -0.03000
C 	C 	0.86355 0.93144 0.04601 -0.04000
C 	C 	0.93411 0.95761 0.07019 0.05500
C 	C 	0.95509 0.97193 0.07125 -0.12200
H 	H 	0.78724 0.85139 0.09651 0.03200
H 	H 	0.82689 0.88448 0.10415 0.04600
H 	H 	0.84484 0.88123 0.00525 0.04800
H 	H 	0.80526 0.84797 0.99748 0.03500
H 	H 	0.88489 0.87425 0.08945 0.03700
H 	H 	0.92589 0.90588 0.09647 0.03600
H 	H 	0.88733 0.97016 0.03876 0.04100
H 	H 	0.84622 0.93864 0.03188 0.04100
C 	C 	0.67287 0.90421 0.82457 -0.03700
C 	C 	0.65921 0.88613 0.84603 -0.00100
C 	C 	0.63047 0.88127 0.84324 -0.03600
H 	H 	0.61977 0.86735 0.85972 0.04000
C 	C 	0.61531 0.89519 0.81988 -0.04100
C 	C 	0.62879 0.91399 0.79899 0.00700
C 	C 	0.65774 0.91800 0.80106 -0.04100
H 	H 	0.66839 0.93225 0.78487 0.04000
C 	C 	0.61233 0.93099 0.77652 0.00900
C 	C 	0.59473 0.91719 0.75491 -0.04300
C 	C 	0.57702 0.93329 0.73590 -0.03200
C 	C 	0.57689 0.96332 0.73821 -0.00900
C 	C 	0.59528 0.97714 0.75892 -0.03200
C 	C 	0.61283 0.96105 0.77808 -0.04300
C 	C 	0.67453 0.87403 0.87278 0.02600
C 	C 	0.67892 0.84438 0.87475 -0.06400
C 	C 	0.69105 0.83261 0.90158 0.01200
C 	C 	0.69868 0.85040 0.92677 -0.07800
C 	C 	0.69509 0.88017 0.92430 0.01300
C 	C 	0.68311 0.89193 0.89741 -0.06400
H 	H 	0.69374 0.80961 0.90314 0.03900
H 	H 	0.70122 0.89417 0.94339 0.03900
H 	H 	0.67988 0.91486 0.89603 0.04700
H 	H 	0.67244 0.83043 0.85578 0.04700
H 	H 	0.59438 0.89401 0.75332 0.04100
H 	H 	0.56295 0.92242 0.71993 0.04100
H 	H 	0.62631 0.97192 0.79468 0.04000
H 	H 	0.59552 0.00032 0.76065 0.03900
H 	H 	0.59298 0.89199 0.81855 0.04000
H 	H 	0.69508 0.90796 0.82647 0.03900
C 	C 	0.59084 0.90613 0.18059 -0.04200
C 	C 	0.59460 0.90176 0.21285 0.00700
C 	C 	0.61416 0.88169 0.22328 -0.04200
H 	H 	0.61710 0.87805 0.24813 0.03900
C 	C 	0.63031 0.86665 0.20161 -0.03600
C 	C 	0.62701 0.87159 0.16939 -0.00300
C 	C 	0.60696 0.89110 0.15896 -0.03600
H 	H 	0.60420 0.89495 0.13412 0.03900
C 	C 	0.64567 0.85774 0.14665 0.02900
C 	C 	0.66496 0.87433 0.12972 -0.06900
C 	C 	0.68185 0.86153 0.10713 0.02000
C 	C 	0.67959 0.83197 0.10120 -0.09800
C 	C 	0.66059 0.81527 0.11857 0.01800
C 	C 	0.64371 0.82812 0.14121 -0.07000
C 	C 	0.57899 0.91917 0.23562 0.00900
C 	C 	0.59315 0.93866 0.25509 -0.04300
C 	C 	0.57822 0.95739 0.27423 -0.03200
C 	C 	0.54902 0.95680 0.27401 -0.00900
C 	C 	0.53487 0.93662 0.25540 -0.03200
C 	C 	0.54980 0.91787 0.23629 -0.04400
H 	H 	0.58931 0.97287 0.28856 0.04100
H 	H 	0.51233 0.93587 0.25528 0.03800
H 	H 	0.53869 0.90274 0.22154 0.04000
H 	H 	0.61568 0.93983 0.25472 0.04100
H 	H 	0.66676 0.89717 0.13396 0.04800
H 	H 	0.69669 0.87461 0.09427 0.03700
H 	H 	0.62886 0.81516 0.15420 0.04500
H 	H 	0.65856 0.79247 0.11418 0.03000
H 	H 	0.64573 0.85160 0.20986 0.03700
H 	H 	0.57581 0.92159 0.17232 0.03900
C 	C 	0.08555 0.06587 0.04720 -0.10200
C 	C 	0.09778 0.07838 0.07387 0.01900
C 	C 	0.12285 0.09363 0.07128 -0.07100
C 	C 	0.13590 0.09662 0.04202 0.02800
C 	C 	0.12343 0.08474 0.01527 -0.07000
C 	C 	0.09839 0.06948 0.01781 0.02200
C 	C 	0.16300 0.11149 0.03949 0.00100
C 	C 	0.16556 0.13655 0.02144 -0.04100
C 	C 	0.19147 0.15009 0.01818 -0.03100
C 	C 	0.21496 0.13867 0.03293 -0.01200
C 	C 	0.21244 0.11372 0.05106 -0.03100
C 	C 	0.18655 0.10015 0.05433 -0.04100
C 	C 	0.24153 0.15291 0.03002 0.05300
C 	C 	0.26371 0.16501 0.02786 -0.12400
H 	H 	0.08797 0.07615 0.09662 0.02700
H 	H 	0.13223 0.10298 0.09202 0.04500
H 	H 	0.13337 0.08694 0.99259 0.04900
H 	H 	0.08928 0.05999 0.99700 0.04000
H 	H 	0.14750 0.14549 0.00993 0.04000
H 	H 	0.19326 0.16945 0.00424 0.03600
H 	H 	0.23051 0.10483 0.06260 0.03900
H 	H 	0.18481 0.08072 0.06816 0.03800
C 	C 	0.42289 0.06003 0.81499 -0.04100
C 	C 	0.43984 0.07664 0.79510 0.00700
C 	C 	0.43949 0.10666 0.79751 -0.04100
H 	H 	0.45221 0.11970 0.78200 0.04000
C 	C 	0.42346 0.11987 0.82065 -0.03700
C 	C 	0.40745 0.10317 0.84141 -0.00000
C 	C 	0.40666 0.07324 0.83792 -0.03700
H 	H 	0.39410 0.06019 0.85358 0.03900
C 	C 	0.39360 0.11673 0.86845 0.02600
C 	C 	0.37362 0.13811 0.86377 -0.06300
C 	C 	0.36139 0.15171 0.88949 0.01100
C 	C 	0.36900 0.14400 0.92014 -0.07700
C 	C 	0.38868 0.12227 0.92474 0.01200
C 	C 	0.40097 0.10882 0.89905 -0.06300
C 	C 	0.45958 0.06252 0.77362 0.00900
C 	C 	0.44994 0.04245 0.75155 -0.04300
C 	C 	0.46888 0.02700 0.73342 -0.03200
C 	C 	0.49761 0.03164 0.73704 -0.00900
C 	C 	0.50719 0.05248 0.75825 -0.03200
C 	C 	0.48829 0.06773 0.77656 -0.04300
H 	H 	0.46127 0.01100 0.71707 0.04200
H 	H 	0.52931 0.05643 0.76098 0.03800
H 	H 	0.49596 0.08312 0.79356 0.04000
H 	H 	0.42782 0.03845 0.74888 0.04100
H 	H 	0.36766 0.14424 0.84023 0.04700
H 	H 	0.34604 0.16822 0.88557 0.04000
H 	H 	0.41651 0.09248 0.90291 0.04600
H 	H 	0.39480 0.11610 0.94820 0.04100
H 	H 	0.42414 0.14299 0.82307 0.03900
H 	H 	0.42295 0.03685 0.81330 0.04000
C 	C 	0.46279 0.11516 0.19152 -0.04200
C 	C 	0.44640 0.10218 0.21488 0.00700
C 	C 	0.41762 0.10709 0.21561 -0.04200
H 	H 	0.40483 0.09739 0.23372 0.04000
C 	C 	0.40517 0.12380 0.19238 -0.03600
C 	C 	0.42141 0.13580 0.16828 -0.00300
C 	C 	0.45035 0.13194 0.16836 -0.03600
H 	H 	0.46309 0.14132 0.15000 0.03800
C 	C 	0.40789 0.15020 0.14159 0.03000
C 	C 	0.40973 0.13835 0.11146 -0.06900
C 	C 	0.39558 0.15090 0.08645 0.02200
C 	C 	0.37934 0.17542 0.09130 -0.09700
C 	C 	0.37804 0.18769 0.12133 0.02100
C 	C 	0.39224 0.17510 0.14638 -0.07100
C 	C 	0.45902 0.08168 0.23697 0.00900
C 	C 	0.45065 0.05277 0.23668 -0.04300
C 	C 	0.46431 0.03279 0.25549 -0.03200
C 	C 	0.48652 0.04150 0.27467 -0.00900
C 	C 	0.49432 0.07056 0.27574 -0.03200
C 	C 	0.48061 0.09058 0.25698 -0.04300
H 	H 	0.45802 0.01043 0.25467 0.03800
H 	H 	0.51142 0.07749 0.29052 0.04200
H 	H 	0.48709 0.11288 0.25754 0.04100
H 	H 	0.43403 0.04569 0.22131 0.04000
H 	H 	0.42177 0.11913 0.10755 0.04800
H 	H 	0.39707 0.14143 0.06333 0.03500
H 	H 	0.39080 0.18449 0.16954 0.04500
H 	H 	0.36557 0.20657 0.12544 0.02400
H 	H 	0.38282 0.12671 0.19256 0.03800
H 	H 	0.48503 0.11154 0.19078 0.04000
C 	C 	0.46075 0.44602 0.95550 -0.07700
C 	C 	0.43263 0.43818 0.95256 0.01300
C 	C 	0.42522 0.40971 0.94644 -0.06200
C 	C 	0.44591 0.38884 0.94308 0.02400
C 	C 	0.47402 0.39733 0.94240 -0.06300
C 	C 	0.48143 0.42585 0.94858 0.01200
C 	C 	0.43837 0.35817 0.94583 0.00400
C 	C 	0.44813 0.34219 0.97144 -0.04100
C 	C 	0.43594 0.31570 0.97874 -0.03000
C 	C 	0.41395 0.30500 0.96055 -0.01200
C 	C 	0.40576 0.31975 0.93349 -0.03000
C 	C 	0.41802 0.34621 0.92605 -0.04200
C 	C 	0.39712 0.28166 0.97227 0.05500
C 	C 	0.38243 0.26297 0.98290 -0.12300
H 	H 	0.41650 0.45375 0.95710 0.03400
H 	H 	0.40344 0.40353 0.94646 0.04600
H 	H 	0.49015 0.38153 0.93902 0.04600
H 	H 	0.50323 0.43175 0.95023 0.03800
H 	H 	0.46396 0.35107 0.98676 0.04000
H 	H 	0.44260 0.30427 0.99951 0.03800
H 	H 	0.38898 0.31144 0.91908 0.03900
H 	H 	0.41068 0.35810 0.90590 0.04000
C 	C 	0.42403 0.55792 0.02762 -0.10200
C 	C 	0.41252 0.57468 0.05162 0.02200
C 	C 	0.38649 0.58737 0.04758 -0.07100
C 	C 	0.37170 0.58335 0.01956 0.02900
C 	C 	0.38294 0.56619 0.99579 -0.06900
C 	C 	0.40896 0.55353 0.99979 0.02500
C 	C 	0.34484 0.59780 0.01474 0.00100
C 	C 	0.34210 0.61846 0.99101 -0.04100
C 	C 	0.31697 0.63298 0.98723 -0.03000
C 	C 	0.29444 0.62695 0.00711 -0.01300
C 	C 	0.29698 0.60599 0.03047 -0.03100
C 	C 	0.32209 0.59144 0.03428 -0.04100
C 	C 	0.26933 0.64345 0.00477 0.05500
C 	C 	0.24851 0.65764 0.00327 -0.12500
H 	H 	0.42394 0.57833 0.07315 0.02000
H 	H 	0.37800 0.60064 0.06603 0.04400
H 	H 	0.37156 0.56277 0.97419 0.04900
H 	H 	0.41740 0.54029 0.98127 0.03600
H 	H 	0.35954 0.62354 0.97584 0.04000
H 	H 	0.31517 0.64920 0.96916 0.03800
H 	H 	0.27965 0.60124 0.04594 0.03800
H 	H 	0.32395 0.57540 0.05252 0.03900
C 	C 	0.55618 0.46922 0.05250 -0.10200
C 	C 	0.55218 0.43989 0.04624 0.01900
C 	C 	0.57506 0.42216 0.04113 -0.06900
C 	C 	0.60216 0.43352 0.04236 0.02800
C 	C 	0.60625 0.46245 0.05027 -0.07000
C 	C 	0.58338 0.48023 0.05535 0.02100
C 	C 	0.62603 0.41571 0.03301 0.00200
C 	C 	0.63239 0.39073 0.04984 -0.04200
C 	C 	0.65402 0.37301 0.03983 -0.03100
C 	C 	0.66940 0.38017 0.01297 -0.01200
C 	C 	0.66329 0.40528 0.99637 -0.02900
C 	C 	0.64168 0.42298 0.00632 -0.04200
C 	C 	0.69129 0.36166 0.00226 0.05300
C 	C 	0.70969 0.34634 0.99310 -0.12100
H 	H 	0.53134 0.43099 0.04447 0.03300
H 	H 	0.57169 0.39980 0.03524 0.04600
H 	H 	0.62713 0.47133 0.05164 0.04600
H 	H 	0.58682 0.50277 0.06025 0.03200
H 	H 	0.62047 0.38495 0.07049 0.03800
H 	H 	0.65869 0.35368 0.05284 0.03700
H 	H 	0.67514 0.41097 0.97562 0.04000
H 	H 	0.63683 0.44212 0.99306 0.04200
C 	C 	0.68115 0.73602 0.00190 -0.10300
C 	C 	0.65230 0.73756 0.00678 0.02100
C 	C 	0.63522 0.71399 0.99994 -0.06900
C 	C 	0.64679 0.68871 0.98792 0.02800
C 	C 	0.67543 0.68768 0.98156 -0.07100
C 	C 	0.69255 0.71119 0.98863 0.02100
C 	C 	0.62941 0.66258 0.98492 0.00100
C 	C 	0.60488 0.66305 0.96704 -0.04100
C 	C 	0.58617 0.63992 0.96830 -0.03100
C 	C 	0.59198 0.61613 0.98723 -0.01000
C 	C 	0.61728 0.61486 0.00346 -0.03200
C 	C 	0.63591 0.63800 0.00238 -0.04100
C 	C 	0.57044 0.59536 0.99387 0.05200
C 	C 	0.55230 0.57858 0.00102 -0.11800
H 	H 	0.64323 0.75662 0.01695 0.03500
H 	H 	0.61315 0.71501 0.00499 0.04600
H 	H 	0.68451 0.66842 0.97190 0.04600
H 	H 	0.71472 0.70993 0.98423 0.02800
H 	H 	0.59985 0.68172 0.95309 0.04000
H 	H 	0.56670 0.64101 0.95556 0.04000
H 	H 	0.62195 0.59649 0.01806 0.03600
H 	H 	0.65482 0.63734 0.01617 0.03700
