data_crystal

_cell_length_a 42.37885
_cell_length_b 42.74943
_cell_length_c 41.83881
_cell_angle_alpha 91.94303
_cell_angle_beta  88.27372
_cell_angle_gamma 89.89468

_symmetry_space_group_name_	'P 1'
_symmetry_space_group_name_H-M	'P 1'

loop_
_symmetry_equiv_pos_as_xyz
  x,y,z

loop_
_atom_site_label
_atom_site_type_symbol
_atom_site_fract_x
_atom_site_fract_y
_atom_site_fract_z
_atom_site_charge
Cd	Cd	0.02674 0.85738 0.31350 1.24000
Cd	Cd	0.01101 0.90995 0.37967 1.17700
O 	O 	0.06092 0.81181 0.32113 -0.31300
O 	O 	0.03522 0.81702 0.27689 -0.34800
C 	C 	0.05370 0.79977 0.29339 0.27700
O 	O 	0.98905 0.88958 0.29692 -0.38900
O 	O 	1.00000 0.93027 0.33226 -0.42200
C 	C 	0.98240 0.91772 0.30971 0.27000
C 	C 	0.98204 0.83991 0.36205 0.30000
O 	O 	0.05748 0.89490 0.35255 -0.45200
O 	O 	0.98023 0.82197 0.33635 -0.30700
O 	O 	0.00556 0.85936 0.36212 -0.53700
C 	C 	0.06975 0.90817 0.32747 0.29300
O 	O 	0.06460 0.89389 0.30004 -0.35400
Cd	Cd	0.99356 0.87932 0.91159 1.24100
Cd	Cd	0.00482 0.91771 0.83803 1.16400
O 	O 	0.03370 0.84119 0.92627 -0.31100
O 	O 	0.99315 0.85276 0.95808 -0.34700
C 	C 	0.01759 0.83469 0.95213 0.27500
O 	O 	0.95572 0.91604 0.91376 -0.38600
O 	O 	0.95580 0.92277 0.85968 -0.44500
C 	C 	0.94947 0.93334 0.88914 0.27200
C 	C 	0.03719 0.92955 0.90726 0.29600
O 	O 	0.99944 0.86519 0.84960 -0.44800
O 	O 	0.03070 0.92371 0.93724 -0.29000
O 	O 	0.02608 0.90975 0.88646 -0.54400
C 	C 	0.97328 0.84947 0.85272 0.29000
O 	O 	0.96200 0.84665 0.88181 -0.37400
C 	C 	0.00314 0.64443 0.84064 0.12500
N 	N 	0.98273 0.62029 0.84481 -0.13400
C 	C 	0.97962 0.59794 0.82125 0.12500
N 	N 	0.99621 0.60026 0.79319 -0.13800
C 	C 	0.01589 0.62479 0.78853 0.12200
N 	N 	0.01967 0.64667 0.81242 -0.13500
C 	C 	0.08022 0.60711 0.40139 0.12800
N 	N 	0.07670 0.61551 0.43295 -0.13600
C 	C 	0.07680 0.59332 0.45547 0.12500
N 	N 	0.07830 0.56257 0.44621 -0.14000
C 	C 	0.08080 0.55395 0.41466 0.12500
N 	N 	0.08332 0.57638 0.39248 -0.13600
Cd	Cd	0.83439 0.86280 0.74730 1.24100
Cd	Cd	0.86198 0.87224 0.82695 1.17000
O 	O 	0.79162 0.82503 0.73993 -0.31100
O 	O 	0.80543 0.85684 0.70219 -0.34600
C 	C 	0.78483 0.83666 0.71270 0.27600
O 	O 	0.86723 0.90414 0.74535 -0.38000
O 	O 	0.89512 0.89138 0.78944 -0.42900
C 	C 	0.88800 0.91148 0.76751 0.27800
C 	C 	0.79868 0.89962 0.79351 0.31200
O 	O 	0.85987 0.82964 0.79107 -0.45100
O 	O 	0.78877 0.90353 0.76472 -0.30100
O 	O 	0.81948 0.87764 0.79590 -0.53700
C 	C 	0.88198 0.82117 0.77021 0.29200
O 	O 	0.87729 0.82907 0.74081 -0.35200
Cd	Cd	0.81635 0.90869 0.41126 1.24100
Cd	Cd	0.87186 0.89070 0.34778 1.16600
O 	O 	0.77436 0.87041 0.42164 -0.31100
O 	O 	0.77856 0.91323 0.45130 -0.34800
C 	C 	0.76176 0.88859 0.44408 0.27700
O 	O 	0.85306 0.94598 0.41698 -0.38600
O 	O 	0.87234 0.94092 0.36533 -0.44400
C 	C 	0.87609 0.94973 0.39545 0.27100
C 	C 	0.86579 0.86524 0.42063 0.29600
O 	O 	0.81739 0.89724 0.34859 -0.44700
O 	O 	0.85275 0.87436 0.44812 -0.28900
O 	O 	0.85176 0.87433 0.39551 -0.54200
C 	C 	0.80180 0.92336 0.34638 0.29000
O 	O 	0.79229 0.93712 0.37324 -0.37600
C 	C 	0.62577 0.88856 0.85555 0.12700
N 	N 	0.63097 0.87989 0.88600 -0.13500
C 	C 	0.61707 0.89606 0.91122 0.12300
N 	N 	0.59688 0.91989 0.90592 -0.13900
C 	C 	0.59084 0.92791 0.87561 0.12500
N 	N 	0.60571 0.91262 0.85049 -0.13600
C 	C 	0.60322 0.91418 0.29968 0.12700
N 	N 	0.57982 0.93582 0.30411 -0.13600
C 	C 	0.56394 0.94602 0.27873 0.12400
N 	N 	0.57245 0.93554 0.24869 -0.13900
C 	C 	0.59603 0.91418 0.24404 0.12300
N 	N 	0.61092 0.90293 0.26961 -0.13500
Cd	Cd	0.84400 0.05008 0.23537 1.24100
Cd	Cd	0.83156 0.02990 0.31705 1.17000
O 	O 	0.81113 0.09261 0.21671 -0.31100
O 	O 	0.85143 0.07445 0.18796 -0.34700
C 	C 	0.83032 0.09658 0.19240 0.27600
O 	O 	0.88367 0.01680 0.24459 -0.38100
O 	O 	0.85890 0.99369 0.28736 -0.42800
C 	C 	0.88455 0.99855 0.26959 0.28000
C 	C 	0.87003 0.08845 0.28492 0.31200
O 	O 	0.79912 0.02944 0.27321 -0.45100
O 	O 	0.88157 0.09557 0.25687 -0.30100
O 	O 	0.84676 0.06882 0.28450 -0.53700
C 	C 	0.79539 0.00593 0.25303 0.29100
O 	O 	0.81074 0.00796 0.22560 -0.35200
Cd	Cd	0.80592 0.07663 0.87315 1.24200
Cd	Cd	0.83979 0.03275 0.80658 1.17300
O 	O 	0.75563 0.10314 0.86451 -0.31100
O 	O 	0.77753 0.10531 0.91126 -0.34500
C 	C 	0.75515 0.11528 0.89341 0.27600
O 	O 	0.84597 0.05019 0.89406 -0.37700
O 	O 	0.87292 0.04397 0.84597 -0.43100
C 	C 	0.86799 0.03587 0.87578 0.27900
C 	C 	0.78193 0.01628 0.85714 0.29800
O 	O 	0.82749 0.08532 0.81432 -0.44500
O 	O 	0.77108 0.02599 0.88535 -0.29100
O 	O 	0.79692 0.03703 0.84075 -0.53600
C 	C 	0.84586 0.10695 0.82621 0.30000
O 	O 	0.84039 0.11466 0.85630 -0.35700
C 	C 	0.75869 0.29042 0.76908 0.12900
N 	N 	0.77306 0.31713 0.77935 -0.13600
C 	C 	0.78316 0.33844 0.75801 0.12500
N 	N 	0.77922 0.33275 0.72625 -0.13900
C 	C 	0.76535 0.30584 0.71574 0.12400
N 	N 	0.75479 0.28479 0.73723 -0.13500
C 	C 	0.85972 0.25964 0.33418 0.12700
N 	N 	0.84021 0.26040 0.36066 -0.13500
C 	C 	0.84862 0.27684 0.38745 0.12300
N 	N 	0.87605 0.29317 0.38743 -0.13900
C 	C 	0.89553 0.29256 0.36106 0.12500
N 	N 	0.88756 0.27537 0.33464 -0.13600
Cd	Cd	0.02743 0.06398 0.77623 1.23900
Cd	Cd	0.98048 0.05783 0.84743 1.17800
O 	O 	0.07074 0.10196 0.77728 -0.31300
O 	O 	0.06511 0.06922 0.73624 -0.34800
C 	C 	0.08148 0.09167 0.74951 0.27700
O 	O 	0.99618 0.02226 0.76698 -0.38800
O 	O 	0.95718 0.03782 0.80362 -0.42400
C 	C 	0.96908 0.01697 0.78259 0.26900
C 	C 	0.05160 0.03027 0.82790 0.30100
O 	O 	0.99062 0.09923 0.81415 -0.45000
O 	O 	0.06811 0.02476 0.80145 -0.30600
O 	O 	0.03034 0.05206 0.82653 -0.53700
C 	C 	0.97475 0.10611 0.78908 0.29400
O 	O 	0.98719 0.09653 0.76156 -0.35400
Cd	Cd	0.02893 0.08317 0.39088 1.24100
Cd	Cd	0.99737 0.04365 0.32236 1.17500
O 	O 	0.05786 0.13164 0.38069 -0.31100
O 	O 	0.05060 0.11517 0.42941 -0.34600
C 	C 	0.06369 0.13566 0.41083 0.27600
O 	O 	0.99723 0.04627 0.41163 -0.37600
O 	O 	0.99978 0.01513 0.36600 -0.42900
C 	C 	0.98574 0.02324 0.39352 0.27800
C 	C 	0.97268 0.10575 0.36440 0.29900
O 	O 	0.04848 0.05584 0.33631 -0.44500
O 	O 	0.97712 0.11916 0.39244 -0.29100
O 	O 	0.99604 0.08905 0.35261 -0.53500
C 	C 	0.06710 0.03867 0.35286 0.29800
O 	O 	0.06913 0.04710 0.38300 -0.35800
C 	C 	0.26778 0.13371 0.85807 0.12800
N 	N 	0.26116 0.14941 0.88632 -0.13500
C 	C 	0.28312 0.15107 0.90935 0.12400
N 	N 	0.31189 0.13760 0.90378 -0.13900
C 	C 	0.31866 0.12206 0.87556 0.12500
N 	N 	0.29646 0.11991 0.85286 -0.13600
C 	C 	0.24974 0.17112 0.29665 0.12800
N 	N 	0.24577 0.18265 0.26712 -0.13500
C 	C 	0.26852 0.17816 0.24382 0.12400
N 	N 	0.29521 0.16222 0.25012 -0.13900
C 	C 	0.29911 0.15031 0.27942 0.12400
N 	N 	0.27637 0.15485 0.30269 -0.13500
C 	C 	0.26298 0.18752 0.21090 -0.01800
C 	C 	0.23613 0.17677 0.19505 -0.01700
C 	C 	0.23437 0.17925 0.16186 -0.04500
C 	C 	0.25935 0.19267 0.14434 0.01600
C 	C 	0.28498 0.20565 0.16057 -0.04600
C 	C 	0.28684 0.20299 0.19367 -0.01700
C 	C 	0.26062 0.18962 0.10904 0.00700
C 	C 	0.28447 0.17152 0.09344 -0.03700
C 	C 	0.28597 0.16865 0.06007 -0.03700
C 	C 	0.26364 0.18384 0.04191 0.00700
C 	C 	0.23958 0.20174 0.05746 -0.03700
C 	C 	0.23807 0.20463 0.09094 -0.03700
C 	C 	0.26555 0.18082 0.00662 0.01500
C 	C 	0.24229 0.16418 0.99002 -0.04400
C 	C 	0.24694 0.15636 0.95744 -0.01800
C 	C 	0.27498 0.16497 0.94129 -0.01700
C 	C 	0.29718 0.18347 0.95742 -0.01700
C 	C 	0.29246 0.19141 0.98991 -0.04500
H 	H 	0.21747 0.16495 0.20812 0.05000
H 	H 	0.21433 0.16941 0.14961 0.04800
H 	H 	0.30413 0.21656 0.14734 0.04700
H 	H 	0.30746 0.21179 0.20573 0.04400
H 	H 	0.30178 0.15959 0.10720 0.04300
H 	H 	0.30444 0.15453 0.04830 0.04400
H 	H 	0.22220 0.21351 0.04365 0.04500
H 	H 	0.21954 0.21862 0.10275 0.04500
H 	H 	0.22131 0.15611 0.00263 0.04700
H 	H 	0.22951 0.14228 0.94522 0.05200
H 	H 	0.31865 0.19074 0.94508 0.04400
H 	H 	0.31031 0.20472 0.00240 0.04600
C 	C 	0.12558 0.19294 0.39649 -0.03600
C 	C 	0.15114 0.17176 0.39569 0.02400
C 	C 	0.14917 0.14510 0.41457 -0.03700
C 	C 	0.11954 0.13588 0.42731 0.01700
C 	C 	0.09229 0.15298 0.42014 -0.06600
C 	C 	0.09612 0.18371 0.40960 0.02000
C 	C 	0.17591 0.17325 0.36964 0.01300
C 	C 	0.17707 0.12636 0.41914 0.10000
C 	C 	0.06920 0.20463 0.40975 0.08700
C 	C 	0.20415 0.18985 0.37466 -0.02600
C 	C 	0.22796 0.19007 0.35031 -0.00600
C 	C 	0.22371 0.17328 0.32108 -0.01800
C 	C 	0.19521 0.15709 0.31593 -0.00600
C 	C 	0.17125 0.15733 0.34004 -0.02700
C 	C 	0.20878 0.20649 0.40492 0.09700
C 	C 	0.19090 0.13943 0.28615 0.09000
C 	C 	0.25669 0.20775 0.35518 0.09200
C 	C 	0.14189 0.14085 0.33459 0.09600
C 	C 	0.12916 0.22319 0.38224 0.10000
C 	C 	0.11679 0.10795 0.44582 0.08900
N 	N 	0.27964 0.22183 0.35906 -0.10800
N 	N 	0.21243 0.21977 0.42908 -0.10700
N 	N 	0.18748 0.12535 0.26239 -0.11300
N 	N 	0.11847 0.12771 0.33028 -0.10700
N 	N 	0.19939 0.11141 0.42277 -0.10900
N 	N 	0.11462 0.08561 0.46060 -0.10500
N 	N 	0.04768 0.22134 0.40988 -0.10600
N 	N 	0.13206 0.24734 0.37084 -0.11100
C 	C 	0.22818 0.13156 0.77765 -0.02600
C 	C 	0.19841 0.11900 0.78590 0.01300
C 	C 	0.19094 0.11235 0.81808 -0.02700
C 	C 	0.21377 0.11665 0.84163 -0.00600
C 	C 	0.24326 0.13015 0.83361 -0.01900
C 	C 	0.25003 0.13843 0.80168 -0.00600
C 	C 	0.17461 0.11291 0.76085 0.02400
C 	C 	0.15972 0.10104 0.82690 0.09600
C 	C 	0.27910 0.15466 0.79373 0.09400
C 	C 	0.16772 0.08183 0.75108 -0.03700
C 	C 	0.13728 0.07442 0.74035 0.01900
C 	C 	0.11436 0.09829 0.73926 -0.06600
C 	C 	0.12447 0.12966 0.74011 0.02000
C 	C 	0.15431 0.13717 0.75221 -0.03600
C 	C 	0.19121 0.05750 0.75388 0.09900
C 	C 	0.10323 0.15415 0.73094 0.08700
C 	C 	0.12905 0.04229 0.73237 0.09300
C 	C 	0.16329 0.16956 0.75758 0.10100
C 	C 	0.23643 0.13711 0.74444 0.09800
C 	C 	0.20742 0.10591 0.87370 0.09100
N 	N 	0.12248 0.01661 0.72602 -0.10700
N 	N 	0.20999 0.03809 0.75614 -0.11100
N 	N 	0.08626 0.17371 0.72361 -0.10400
N 	N 	0.17049 0.19543 0.76189 -0.10800
N 	N 	0.13480 0.09200 0.83386 -0.10700
N 	N 	0.20232 0.09729 0.89927 -0.11300
N 	N 	0.30230 0.16761 0.78739 -0.10600
N 	N 	0.24297 0.14153 0.71792 -0.10600
C 	C 	0.76384 0.29865 0.68101 -0.01700
C 	C 	0.75796 0.32274 0.65993 -0.01700
C 	C 	0.76169 0.31733 0.62688 -0.04600
C 	C 	0.77127 0.28779 0.61454 0.01600
C 	C 	0.77542 0.26321 0.63543 -0.04500
C 	C 	0.77168 0.26859 0.66855 -0.01700
C 	C 	0.78017 0.28359 0.58027 0.00700
C 	C 	0.80804 0.29711 0.56827 -0.03700
C 	C 	0.81583 0.29462 0.53558 -0.03700
C 	C 	0.79577 0.27867 0.51451 0.00600
C 	C 	0.76816 0.26460 0.52658 -0.03700
C 	C 	0.76039 0.26704 0.55937 -0.03700
C 	C 	0.80344 0.27743 0.47977 0.01600
C 	C 	0.81126 0.24881 0.46401 -0.04500
C 	C 	0.82372 0.24831 0.43258 -0.01700
C 	C 	0.82861 0.27644 0.41681 -0.01800
C 	C 	0.81878 0.30481 0.43183 -0.01700
C 	C 	0.80615 0.30529 0.46310 -0.04600
H 	H 	0.75136 0.34589 0.66919 0.04500
H 	H 	0.75812 0.33636 0.61091 0.04700
H 	H 	0.78266 0.24027 0.62611 0.04800
H 	H 	0.77618 0.24976 0.68450 0.05100
H 	H 	0.82353 0.30976 0.58425 0.04400
H 	H 	0.83735 0.30528 0.52657 0.04400
H 	H 	0.75255 0.25217 0.51054 0.04400
H 	H 	0.73885 0.25647 0.56844 0.04500
H 	H 	0.80900 0.22712 0.47655 0.04600
H 	H 	0.83111 0.22626 0.42118 0.04800
H 	H 	0.82215 0.32663 0.41974 0.04400
H 	H 	0.79966 0.32746 0.47484 0.04700
C 	C 	0.88728 0.09609 0.78355 -0.01100
C 	C 	0.87683 0.11356 0.81090 -0.08800
C 	C 	0.89791 0.13396 0.82633 -0.00300
C 	C 	0.92990 0.13355 0.81732 -0.02400
C 	C 	0.94092 0.11330 0.79240 -0.08300
C 	C 	0.91922 0.09602 0.77429 -0.01300
H 	H 	0.87109 0.08113 0.77061 -0.01600
H 	H 	0.88989 0.14875 0.84650 0.04700
H 	H 	0.94634 0.14776 0.83080 0.03500
H 	H 	0.92738 0.08080 0.75451 0.04400
C 	C 	0.72191 0.25416 0.84300 -0.02600
C 	C 	0.73668 0.22454 0.84193 0.01400
C 	C 	0.75645 0.21549 0.81544 -0.02700
C 	C 	0.76304 0.23673 0.79107 -0.00600
C 	C 	0.74893 0.26673 0.79251 -0.01900
C 	C 	0.72751 0.27498 0.81798 -0.00500
C 	C 	0.73232 0.20304 0.86910 0.02400
C 	C 	0.77036 0.18441 0.81355 0.09500
C 	C 	0.71103 0.30477 0.81826 0.09200
C 	C 	0.70798 0.18059 0.86856 -0.03600
C 	C 	0.71163 0.15260 0.88502 0.02000
C 	C 	0.74048 0.14648 0.89949 -0.06600
C 	C 	0.75990 0.17218 0.90747 0.01700
C 	C 	0.75624 0.20050 0.89159 -0.03700
C 	C 	0.68035 0.18553 0.84981 0.10100
C 	C 	0.78371 0.16931 0.93130 0.09200
C 	C 	0.68711 0.12906 0.88477 0.08900
C 	C 	0.77785 0.22622 0.89696 0.09900
C 	C 	0.70127 0.26331 0.86998 0.09700
C 	C 	0.78520 0.22811 0.76514 0.09000
N 	N 	0.66752 0.11024 0.88458 -0.10500
N 	N 	0.65829 0.18951 0.83481 -0.10900
N 	N 	0.80275 0.16704 0.95035 -0.10400
N 	N 	0.79510 0.24679 0.90122 -0.11000
N 	N 	0.78144 0.15962 0.81210 -0.10900
N 	N 	0.80289 0.22124 0.74446 -0.11200
N 	N 	0.69791 0.32855 0.81847 -0.10800
N 	N 	0.68480 0.27058 0.89154 -0.10700
C 	C 	0.89957 0.12424 0.32063 0.00600
C 	C 	0.88849 0.09396 0.31348 -0.12400
C 	C 	0.90150 0.06838 0.32858 -0.01900
C 	C 	0.92807 0.07251 0.34710 -0.04500
C 	C 	0.94106 0.10242 0.35167 -0.09800
C 	C 	0.92567 0.12848 0.33992 -0.01000
H 	H 	0.88942 0.14422 0.30936 0.04100
H 	H 	0.89282 0.04496 0.32365 -0.04600
H 	H 	0.93968 0.05226 0.35622 -0.02000
H 	H 	0.93521 0.15174 0.34384 0.04600
C 	C 	0.84900 0.23842 0.24617 -0.02700
C 	C 	0.84192 0.20629 0.24751 0.01400
C 	C 	0.83619 0.19279 0.27742 -0.02900
C 	C 	0.84237 0.20998 0.30589 -0.00800
C 	C 	0.85063 0.24195 0.30465 -0.01900
C 	C 	0.85212 0.25653 0.27476 -0.00600
C 	C 	0.84283 0.18599 0.21773 0.02400
C 	C 	0.82297 0.16161 0.27888 0.09300
C 	C 	0.85613 0.29015 0.27348 0.09200
C 	C 	0.87041 0.16878 0.20911 -0.03600
C 	C 	0.86793 0.14088 0.19038 0.01900
C 	C 	0.83776 0.12906 0.18361 -0.06700
C 	C 	0.81262 0.15064 0.18357 0.02100
C 	C 	0.81467 0.17891 0.20188 -0.03500
C 	C 	0.90065 0.17871 0.22106 0.10000
C 	C 	0.78378 0.14223 0.16777 0.08900
C 	C 	0.89595 0.12396 0.17915 0.09400
C 	C 	0.78768 0.19964 0.20582 0.10100
C 	C 	0.85319 0.25278 0.21544 0.09700
C 	C 	0.84169 0.19437 0.33616 0.08500
N 	N 	0.91837 0.11044 0.17018 -0.10700
N 	N 	0.92478 0.18665 0.23066 -0.11300
N 	N 	0.76072 0.13549 0.15515 -0.10400
N 	N 	0.76612 0.21622 0.20900 -0.10900
N 	N 	0.81223 0.13680 0.28003 -0.11600
N 	N 	0.84118 0.18188 0.36028 -0.11900
N 	N 	0.85933 0.31698 0.27247 -0.11000
N 	N 	0.85652 0.26421 0.19089 -0.10700
C 	C 	0.32633 0.12984 0.28479 -0.01800
C 	C 	0.34219 0.13196 0.31379 -0.01600
C 	C 	0.36830 0.11272 0.31853 -0.04500
C 	C 	0.37856 0.09113 0.29441 0.01600
C 	C 	0.36261 0.08887 0.26557 -0.04700
C 	C 	0.33665 0.10813 0.26075 -0.01600
C 	C 	0.40613 0.07097 0.29913 0.00600
C 	C 	0.43673 0.08290 0.29490 -0.03700
C 	C 	0.46280 0.06275 0.29440 -0.03700
C 	C 	0.45842 0.03053 0.29819 0.00700
C 	C 	0.42792 0.01886 0.30399 -0.03800
C 	C 	0.40187 0.03900 0.30439 -0.03600
C 	C 	0.48536 0.00874 0.29350 0.01600
C 	C 	0.51091 0.01052 0.31404 -0.04600
C 	C 	0.53660 0.99010 0.30923 -0.01500
C 	C 	0.53694 0.96772 0.28381 -0.01800
C 	C 	0.51127 0.96598 0.26333 -0.01600
C 	C 	0.48568 0.98642 0.26813 -0.04500
H 	H 	0.33453 0.14869 0.33247 0.04900
H 	H 	0.38053 0.11461 0.34088 0.04900
H 	H 	0.37039 0.07223 0.24685 0.04600
H 	H 	0.32442 0.10603 0.23841 0.04500
H 	H 	0.44022 0.10757 0.29088 0.04500
H 	H 	0.48626 0.07200 0.29003 0.04400
H 	H 	0.42433 0.99408 0.30731 0.04600
H 	H 	0.37832 0.02963 0.30782 0.04600
H 	H 	0.51088 0.02769 0.33369 0.04800
H 	H 	0.55630 0.99186 0.32510 0.04800
H 	H 	0.51103 0.94865 0.24385 0.04500
H 	H 	0.46611 0.98498 0.25206 0.04600
C 	C 	0.56732 0.95236 0.87005 -0.01800
C 	C 	0.56644 0.97989 0.88932 -0.01400
C 	C 	0.54194 0.00146 0.88664 -0.04800
C 	C 	0.51794 0.99559 0.86485 0.01900
C 	C 	0.51953 0.96871 0.84463 -0.04500
C 	C 	0.54419 0.94724 0.84714 -0.01500
C 	C 	0.48999 0.01624 0.86497 0.00600
C 	C 	0.47114 0.02052 0.89296 -0.03600
C 	C 	0.44421 0.03940 0.89296 -0.03700
C 	C 	0.43577 0.05404 0.86496 0.00700
C 	C 	0.45462 0.04989 0.83698 -0.03600
C 	C 	0.48169 0.03112 0.83700 -0.03600
C 	C 	0.40680 0.07309 0.86483 0.01700
C 	C 	0.40492 0.10152 0.88252 -0.04600
C 	C 	0.37641 0.11804 0.88518 -0.01600
C 	C 	0.34944 0.10615 0.87031 -0.01800
C 	C 	0.35168 0.07819 0.85168 -0.01500
C 	C 	0.38025 0.06177 0.84896 -0.04600
H 	H 	0.58445 0.98431 0.90674 0.04500
H 	H 	0.54118 0.02238 0.90202 0.04800
H 	H 	0.50115 0.96399 0.82769 0.04900
H 	H 	0.54465 0.92610 0.83210 0.05200
H 	H 	0.47720 0.00895 0.91459 0.04400
H 	H 	0.42970 0.04238 0.91462 0.04400
H 	H 	0.44827 0.06116 0.81527 0.04700
H 	H 	0.49614 0.02806 0.81531 0.04600
H 	H 	0.42540 0.11054 0.89464 0.04800
H 	H 	0.37522 0.13987 0.89909 0.04500
H 	H 	0.33112 0.06871 0.84007 0.04900
H 	H 	0.38153 0.03983 0.83523 0.04900
C 	C 	0.62553 0.88949 0.94422 -0.01700
C 	C 	0.62043 0.85967 0.95642 -0.01700
C 	C 	0.62323 0.85497 0.98922 -0.04600
C 	C 	0.63131 0.88003 0.00997 0.01500
C 	C 	0.63799 0.90941 0.99741 -0.04500
C 	C 	0.63515 0.91409 0.96473 -0.01600
C 	C 	0.63024 0.87636 0.04504 0.00700
C 	C 	0.60158 0.86925 0.06087 -0.03700
C 	C 	0.59903 0.87141 0.09431 -0.03700
C 	C 	0.62507 0.88078 0.11220 0.00600
C 	C 	0.65421 0.88606 0.09649 -0.03700
C 	C 	0.65682 0.88377 0.06306 -0.03700
C 	C 	0.62081 0.88886 0.14668 0.01600
C 	C 	0.61402 0.86546 0.16862 -0.04600
C 	C 	0.60727 0.87358 0.20085 -0.01600
C 	C 	0.60693 0.90516 0.21124 -0.01700
C 	C 	0.61464 0.92841 0.18946 -0.01600
C 	C 	0.62162 0.92030 0.15737 -0.04600
H 	H 	0.61310 0.84049 0.94079 0.04600
H 	H 	0.61832 0.83211 0.99859 0.04700
H 	H 	0.64433 0.92889 0.01315 0.04700
H 	H 	0.63945 0.93713 0.95550 0.04500
H 	H 	0.58094 0.86342 0.04725 0.04400
H 	H 	0.57646 0.86715 0.10621 0.04400
H 	H 	0.67453 0.89303 0.11011 0.04500
H 	H 	0.67916 0.88892 0.05113 0.04400
H 	H 	0.61344 0.84110 0.16062 0.04800
H 	H 	0.60138 0.85545 0.21747 0.04600
H 	H 	0.61470 0.95284 0.19728 0.04500
H 	H 	0.62688 0.93851 0.14065 0.04700
C 	C 	0.81170 0.93069 0.28818 -0.00600
C 	C 	0.79176 0.93452 0.31542 -0.09300
C 	C 	0.76521 0.95409 0.31421 -0.01100
C 	C 	0.76239 0.97418 0.28884 -0.02600
C 	C 	0.78658 0.97533 0.26531 -0.08300
C 	C 	0.80862 0.95072 0.26269 -0.01500
H 	H 	0.83129 0.91435 0.28800 -0.00600
H 	H 	0.74827 0.95565 0.33412 0.04400
H 	H 	0.74373 0.99157 0.28974 0.03800
H 	H 	0.82610 0.94986 0.24324 0.04700
C 	C 	0.93434 0.95318 0.39787 -0.03900
C 	C 	0.90474 0.96710 0.40406 -0.07600
C 	C 	0.90298 0.99885 0.41380 -0.01400
C 	C 	0.93055 0.01704 0.41461 -0.01800
C 	C 	0.95990 0.00348 0.40571 -0.08400
C 	C 	0.96179 0.97103 0.39989 0.00000
H 	H 	0.93596 0.92901 0.38943 -0.02400
H 	H 	0.88024 0.00988 0.41874 0.02500
H 	H 	0.92873 0.04203 0.41957 0.03800
H 	H 	0.98437 0.96018 0.39384 -0.06200
C 	C 	0.62092 0.89049 0.38411 -0.02600
C 	C 	0.65413 0.89221 0.38363 0.01300
C 	C 	0.67079 0.89706 0.35455 -0.02800
C 	C 	0.65435 0.90483 0.32713 -0.00700
C 	C 	0.62096 0.90372 0.32760 -0.01900
C 	C 	0.60444 0.89473 0.35573 -0.00600
C 	C 	0.67173 0.89065 0.41392 0.02400
C 	C 	0.70482 0.89337 0.35277 0.09200
C 	C 	0.57072 0.88911 0.35526 0.09400
C 	C 	0.68315 0.86164 0.42386 -0.03600
C 	C 	0.71025 0.86095 0.44262 0.02100
C 	C 	0.72687 0.88891 0.44886 -0.06700
C 	C 	0.71030 0.91742 0.44705 0.01600
C 	C 	0.68297 0.91845 0.42865 -0.03800
C 	C 	0.66821 0.83280 0.41335 0.10200
C 	C 	0.72090 0.94515 0.46437 0.09100
C 	C 	0.72225 0.83159 0.45360 0.09300
C 	C 	0.66746 0.94799 0.42348 0.09600
C 	C 	0.60373 0.88456 0.41376 0.09700
C 	C 	0.67171 0.91554 0.29917 0.08900
N 	N 	0.73184 0.80812 0.46238 -0.10100
N 	N 	0.65625 0.80978 0.40492 -0.10800
N 	N 	0.72935 0.96732 0.47823 -0.10700
N 	N 	0.65504 0.97157 0.41932 -0.11400
N 	N 	0.73195 0.89024 0.35146 -0.11100
N 	N 	0.68561 0.92412 0.27691 -0.11100
N 	N 	0.54380 0.88463 0.35487 -0.10700
N 	N 	0.59004 0.87982 0.43745 -0.10600
C 	C 	0.89586 0.96914 0.76701 -0.02900
C 	C 	0.90861 0.93890 0.76343 -0.06900
C 	C 	0.94159 0.93496 0.76191 -0.02300
C 	C 	0.96154 0.96081 0.76603 -0.03000
C 	C 	0.94872 0.99083 0.77176 -0.07200
C 	C 	0.91578 0.99499 0.77117 -0.02000
H 	H 	0.87049 0.97249 0.76837 -0.01700
H 	H 	0.95173 0.91173 0.75895 0.02100
H 	H 	0.98685 0.95724 0.76636 -0.00100
H 	H 	0.90553 0.01810 0.77513 -0.01000
C 	C 	0.82023 0.94074 0.82954 -0.01900
C 	C 	0.79406 0.92415 0.81839 -0.12300
C 	C 	0.76351 0.93557 0.82565 0.00600
C 	C 	0.75935 0.96483 0.84115 -0.01200
C 	C 	0.78571 0.98291 0.84902 -0.09700
C 	C 	0.81610 0.97020 0.84440 -0.04900
H 	H 	0.84391 0.93204 0.82429 -0.05000
H 	H 	0.74310 0.92271 0.81745 0.04200
H 	H 	0.73575 0.97426 0.84510 0.04500
H 	H 	0.83658 0.98394 0.85043 -0.01800
C 	C 	0.70936 0.87385 0.72606 -0.03600
C 	C 	0.69502 0.84801 0.74071 0.02400
C 	C 	0.70398 0.81752 0.73002 -0.03500
C 	C 	0.73165 0.81333 0.71066 0.02100
C 	C 	0.75114 0.83927 0.70483 -0.06600
C 	C 	0.73696 0.86914 0.70676 0.01900
C 	C 	0.67654 0.85286 0.77145 0.01400
C 	C 	0.68594 0.79077 0.74036 0.10200
C 	C 	0.75134 0.89491 0.69019 0.09500
C 	C 	0.64336 0.85509 0.77159 -0.02700
C 	C 	0.62648 0.86354 0.80022 -0.00600
C 	C 	0.64297 0.87283 0.82790 -0.01800
C 	C 	0.67621 0.86958 0.82785 -0.00800
C 	C 	0.69253 0.85750 0.80029 -0.02900
C 	C 	0.62665 0.84891 0.74233 0.09800
C 	C 	0.69380 0.88025 0.85534 0.08600
C 	C 	0.59228 0.86201 0.80142 0.09200
C 	C 	0.72552 0.84887 0.80182 0.09300
C 	C 	0.69693 0.90509 0.73243 0.10000
C 	C 	0.74188 0.78232 0.69988 0.09000
N 	N 	0.56499 0.86079 0.80239 -0.11000
N 	N 	0.61334 0.84396 0.71895 -0.10600
N 	N 	0.70787 0.88879 0.87725 -0.11600
N 	N 	0.75180 0.84179 0.80310 -0.11500
N 	N 	0.67150 0.76941 0.74864 -0.10800
N 	N 	0.75007 0.75753 0.69126 -0.10300
N 	N 	0.76283 0.91553 0.67695 -0.10600
N 	N 	0.68697 0.93004 0.73758 -0.11200
C 	C 	0.07601 0.52074 0.40432 -0.01800
C 	C 	0.07543 0.51218 0.37154 -0.01400
C 	C 	0.06416 0.48278 0.36174 -0.04400
C 	C 	0.05375 0.46149 0.38453 0.01600
C 	C 	0.05719 0.46880 0.41716 -0.04600
C 	C 	0.06842 0.49818 0.42705 -0.01700
C 	C 	0.03549 0.43369 0.37453 0.00900
C 	C 	0.04591 0.40360 0.38164 -0.03700
C 	C 	0.02653 0.37766 0.37599 -0.03800
C 	C 	0.99651 0.38166 0.36334 0.00900
C 	C 	0.98672 0.41160 0.35498 -0.03300
C 	C 	0.00613 0.43746 0.36050 -0.04100
C 	C 	0.97420 0.35519 0.36166 0.01700
C 	C 	0.96476 0.34020 0.38969 -0.04500
C 	C 	0.94011 0.31855 0.38915 -0.01600
C 	C 	0.92442 0.31186 0.36062 -0.01700
C 	C 	0.93502 0.32560 0.33221 -0.01600
C 	C 	0.95985 0.34710 0.33274 -0.04400
H 	H 	0.08251 0.52867 0.35361 0.05200
H 	H 	0.06231 0.47704 0.33645 0.05000
H 	H 	0.04973 0.45228 0.43494 0.04600
H 	H 	0.06992 0.50378 0.45239 0.04500
H 	H 	0.06865 0.40042 0.39226 0.04600
H 	H 	0.03446 0.35460 0.38221 0.04700
H 	H 	0.96359 0.41497 0.34527 0.04500
H 	H 	0.99786 0.46060 0.35495 0.05000
H 	H 	0.97578 0.34615 0.41212 0.04800
H 	H 	0.93271 0.30756 0.41109 0.04600
H 	H 	0.92332 0.32052 0.30997 0.05200
H 	H 	0.96724 0.35823 0.31088 0.05000
C 	C 	0.79972 0.36702 0.76918 -0.01800
C 	C 	0.79261 0.38053 0.79968 -0.01600
C 	C 	0.80895 0.40706 0.81052 -0.04500
C 	C 	0.83238 0.42041 0.79095 0.01600
C 	C 	0.83930 0.40715 0.76042 -0.04600
C 	C 	0.82311 0.38058 0.74959 -0.01700
C 	C 	0.85015 0.44794 0.80257 0.00700
C 	C 	0.84733 0.47659 0.78750 -0.03700
C 	C 	0.86699 0.50161 0.79580 -0.03700
C 	C 	0.88965 0.49818 0.81922 0.00700
C 	C 	0.89148 0.46998 0.83533 -0.03700
C 	C 	0.87178 0.44495 0.82704 -0.03700
C 	C 	0.91356 0.52275 0.82435 0.01700
C 	C 	0.90438 0.55285 0.83549 -0.04600
C 	C 	0.92643 0.57718 0.83625 -0.01500
C 	C 	0.95776 0.57161 0.82567 -0.01800
C 	C 	0.96723 0.54116 0.81606 -0.01500
C 	C 	0.94525 0.51685 0.81542 -0.04600
H 	H 	0.77439 0.37058 0.81492 0.05100
H 	H 	0.80338 0.41723 0.83409 0.04900
H 	H 	0.85748 0.41723 0.74523 0.04600
H 	H 	0.82908 0.37030 0.72616 0.04500
H 	H 	0.83052 0.47918 0.76876 0.04500
H 	H 	0.86538 0.52329 0.78325 0.04400
H 	H 	0.90876 0.46716 0.85358 0.04600
H 	H 	0.87402 0.42296 0.83891 0.04600
H 	H 	0.88002 0.55758 0.84270 0.04800
H 	H 	0.91888 0.60057 0.84382 0.04700
H 	H 	0.99144 0.53651 0.80824 0.04500
H 	H 	0.95259 0.49367 0.80693 0.04700
C 	C 	0.03110 0.62878 0.75681 -0.01700
C 	C 	0.02736 0.65691 0.74092 -0.01800
C 	C 	0.03639 0.65869 0.70857 -0.04500
C 	C 	0.04951 0.63246 0.69197 0.01600
C 	C 	0.05495 0.60496 0.70835 -0.04600
C 	C 	0.04573 0.60311 0.74060 -0.01700
C 	C 	0.05486 0.63277 0.65696 0.00700
C 	C 	0.02903 0.63280 0.63674 -0.03700
C 	C 	0.03382 0.62921 0.60360 -0.03700
C 	C 	0.06452 0.62571 0.59035 0.00600
C 	C 	0.09043 0.62696 0.61051 -0.03700
C 	C 	0.08561 0.63035 0.64369 -0.03700
C 	C 	0.06934 0.61845 0.55572 0.01600
C 	C 	0.05772 0.63874 0.53311 -0.04600
C 	C 	0.06048 0.63080 0.50040 -0.01600
C 	C 	0.07502 0.60251 0.48996 -0.01800
C 	C 	0.08731 0.58261 0.51264 -0.01700
C 	C 	0.08434 0.59048 0.54529 -0.04600
H 	H 	0.01614 0.67690 0.75318 0.05000
H 	H 	0.03234 0.68012 0.69619 0.04800
H 	H 	0.06525 0.58466 0.69579 0.04600
H 	H 	0.04902 0.58138 0.75270 0.04300
H 	H 	0.00520 0.63463 0.64677 0.04400
H 	H 	0.01365 0.62825 0.58830 0.04400
H 	H 	0.11424 0.62462 0.60053 0.04500
H 	H 	0.10571 0.63046 0.65910 0.04500
H 	H 	0.04626 0.66047 0.54089 0.04700
H 	H 	0.05086 0.64640 0.48328 0.04800
H 	H 	0.09904 0.56098 0.50500 0.04500
H 	H 	0.09333 0.57461 0.56253 0.04600
C 	C 	0.94228 0.99028 0.88222 -0.04000
C 	C 	0.93060 0.96216 0.89404 -0.07400
C 	C 	0.89941 0.96094 0.90629 -0.01600
C 	C 	0.87936 0.98694 0.90414 -0.01700
C 	C 	0.89046 0.01418 0.88970 -0.08300
C 	C 	0.92258 0.01639 0.88098 -0.00400
H 	H 	0.96609 0.99136 0.87222 -0.02900
H 	H 	0.89014 0.93938 0.91566 0.02600
H 	H 	0.85470 0.98501 0.91139 0.03700
H 	H 	0.93156 0.03755 0.87059 -0.06500
C 	C 	0.93993 0.80659 0.83072 -0.01100
C 	C 	0.95927 0.83265 0.82544 -0.09300
C 	C 	0.96036 0.84569 0.79509 -0.00600
C 	C 	0.93807 0.83666 0.77260 -0.01600
C 	C 	0.91399 0.81575 0.78118 -0.08300
C 	C 	0.91760 0.79784 0.80829 -0.02500
H 	H 	0.94041 0.79481 0.85323 0.04500
H 	H 	0.97641 0.86470 0.79002 -0.00800
H 	H 	0.93693 0.84906 0.75051 0.04700
H 	H 	0.90050 0.77990 0.81401 0.03800
C 	C 	0.02821 0.98622 0.90138 -0.04300
C 	C 	0.04833 0.96019 0.89735 -0.09600
C 	C 	0.07424 0.96149 0.87585 -0.03700
C 	C 	0.07700 0.98612 0.85491 -0.00800
C 	C 	0.05385 0.00970 0.85543 -0.12500
C 	C 	0.03101 0.01103 0.88048 -0.00200
H 	H 	0.00874 0.98599 0.91876 0.03500
H 	H 	0.09062 0.94200 0.87337 0.03400
H 	H 	0.09602 0.98582 0.83702 0.04200
H 	H 	0.01451 0.03034 0.88286 -0.07100
C 	C 	0.98872 0.75418 0.95466 -0.03700
C 	C 	0.01636 0.73997 0.94130 0.02200
C 	C 	0.04579 0.75403 0.94720 -0.03600
C 	C 	0.04669 0.78510 0.95966 0.02100
C 	C 	0.01836 0.80226 0.96375 -0.06800
C 	C 	0.98991 0.78535 0.96678 0.01700
C 	C 	0.01385 0.71525 0.91543 0.01300
C 	C 	0.07477 0.73731 0.93875 0.10200
C 	C 	0.96240 0.79971 0.98255 0.09100
C 	C 	0.00761 0.72388 0.88398 -0.02700
C 	C 	0.00225 0.70070 0.86004 -0.00900
C 	C 	0.00669 0.66878 0.86648 -0.01800
C 	C 	0.01474 0.66020 0.89760 -0.00600
C 	C 	0.01716 0.68337 0.92229 -0.02600
C 	C 	0.00756 0.75666 0.87613 0.09200
C 	C 	0.02137 0.62774 0.90399 0.09400
C 	C 	0.99092 0.70963 0.82926 0.09100
C 	C 	0.02313 0.67443 0.95468 0.09700
C 	C 	0.95908 0.73738 0.95432 0.09700
C 	C 	0.07655 0.80008 0.96615 0.09200
N 	N 	0.98184 0.71679 0.80473 -0.11400
N 	N 	0.00767 0.78283 0.86994 -0.11200
N 	N 	0.02666 0.60185 0.90908 -0.10700
N 	N 	0.02790 0.66733 0.98054 -0.10600
N 	N 	0.09791 0.72393 0.93199 -0.10800
N 	N 	0.10040 0.81206 0.97134 -0.10200
N 	N 	0.94039 0.81116 0.99517 -0.10700
N 	N 	0.93541 0.72393 0.95402 -0.11200
C 	C 	0.96443 0.97044 0.29320 -0.02100
C 	C 	0.95942 0.93793 0.29417 -0.07300
C 	C 	0.93114 0.92530 0.28289 -0.03200
C 	C 	0.90747 0.94508 0.27240 -0.02300
C 	C 	0.91183 0.97768 0.27307 -0.06800
C 	C 	0.94074 0.99018 0.28268 -0.02900
H 	H 	0.98634 0.98051 0.30136 -0.01900
H 	H 	0.92694 0.90034 0.28348 0.00100
H 	H 	0.88527 0.93516 0.26491 0.02200
H 	H 	0.94431 0.01529 0.28351 -0.02500
C 	C 	0.93227 0.81843 0.38543 -0.00600
C 	C 	0.95619 0.84112 0.38656 -0.12600
C 	C 	0.95266 0.86692 0.40806 0.00200
C 	C 	0.92349 0.87267 0.42381 -0.04600
C 	C 	0.89791 0.85270 0.41799 -0.09400
C 	C 	0.90318 0.82429 0.40101 -0.03500
H 	H 	0.93540 0.79730 0.37063 0.04400
H 	H 	0.97173 0.88336 0.41129 -0.07700
H 	H 	0.92002 0.89405 0.43815 0.03600
H 	H 	0.88389 0.80806 0.39746 0.03700
C 	C 	0.09222 0.95450 0.35588 -0.02600
C 	C 	0.07735 0.94170 0.32899 -0.08300
C 	C 	0.06491 0.96173 0.30658 -0.01300
C 	C 	0.06395 0.99401 0.31299 -0.01000
C 	C 	0.07560 0.00651 0.34179 -0.08900
C 	C 	0.09161 0.98680 0.36212 -0.00300
H 	H 	0.10278 0.93931 0.37283 0.03300
H 	H 	0.05392 0.95217 0.28535 0.04500
H 	H 	0.05254 0.00902 0.29645 -0.01400
H 	H 	0.10205 0.99626 0.38369 0.04600
C 	C 	0.09002 0.72064 0.29370 -0.03500
C 	C 	0.06562 0.70567 0.31104 0.02300
C 	C 	0.03474 0.71819 0.31120 -0.03500
C 	C 	0.02949 0.74723 0.29734 0.01600
C 	C 	0.05541 0.76557 0.28774 -0.06500
C 	C 	0.08514 0.75113 0.28283 0.01900
C 	C 	0.07310 0.67921 0.33209 0.01400
C 	C 	0.00889 0.70220 0.32715 0.09700
C 	C 	0.11083 0.76806 0.26778 0.08800
C 	C 	0.08960 0.68492 0.36053 -0.02700
C 	C 	0.09468 0.66035 0.38144 -0.00600
C 	C 	0.07917 0.63135 0.37661 -0.01900
C 	C 	0.06205 0.62596 0.34832 -0.00600
C 	C 	0.06166 0.64892 0.32494 -0.02600
C 	C 	0.10066 0.71619 0.36864 0.09600
C 	C 	0.04306 0.59799 0.34426 0.09300
C 	C 	0.11677 0.66452 0.40705 0.09300
C 	C 	0.04921 0.64152 0.29369 0.09700
C 	C 	0.12019 0.70512 0.28804 0.10100
C 	C 	0.99762 0.75834 0.29318 0.09400
N 	N 	0.13440 0.66785 0.42747 -0.10800
N 	N 	0.10947 0.74116 0.37508 -0.10700
N 	N 	0.02787 0.57571 0.34098 -0.11100
N 	N 	0.03928 0.63565 0.26874 -0.10700
N 	N 	0.98828 0.68942 0.33989 -0.10900
N 	N 	0.97213 0.76709 0.28974 -0.10700
N 	N 	0.13135 0.78160 0.25576 -0.10300
N 	N 	0.14428 0.69270 0.28354 -0.10800
