data_crystal

_cell_length_a 38.58467
_cell_length_b 38.00638
_cell_length_c 20.55287
_cell_angle_alpha 91.17147
_cell_angle_beta  90.25433
_cell_angle_gamma 90.04531

_symmetry_space_group_name_	'P 1'
_symmetry_space_group_name_H-M	'P 1'

loop_
_symmetry_equiv_pos_as_xyz
  x,y,z

loop_
_atom_site_label
_atom_site_type_symbol
_atom_site_fract_x
_atom_site_fract_y
_atom_site_fract_z
_atom_site_charge
Cd	Cd	0.02690 0.92996 0.22160 1.24900
Cd	Cd	0.01908 0.00028 0.33880 1.22500
O 	O 	0.06188 0.88047 0.25951 -0.29600
O 	O 	0.03330 0.87712 0.16691 -0.31800
C 	C 	0.05366 0.86169 0.20841 0.27200
O 	O 	0.98717 0.96767 0.17822 -0.30600
O 	O 	0.00771 0.01543 0.23673 -0.36100
C 	C 	0.98370 0.00082 0.19948 0.38600
C 	C 	0.97719 0.92393 0.32254 0.41000
O 	O 	0.06676 0.97398 0.28797 -0.42600
O 	O 	0.97504 0.89791 0.28038 -0.24900
O 	O 	0.00500 0.94305 0.31747 -0.50800
C 	C 	0.08079 0.98259 0.23265 0.39600
O 	O 	0.07115 0.96395 0.18185 -0.29500
Cd	Cd	0.04867 0.84446 0.98844 1.24400
Cd	Cd	0.01415 0.88664 0.84823 1.25400
O 	O 	0.09685 0.80364 0.96768 -0.31700
O 	O 	0.07738 0.81381 0.06611 -0.34200
C 	C 	0.09783 0.79530 0.02856 0.28800
O 	O 	0.01323 0.88579 0.03090 -0.32400
O 	O 	0.98092 0.89055 0.93772 -0.37000
C 	C 	0.99211 0.90402 0.99357 0.37300
C 	C 	0.08420 0.90313 0.93707 0.41400
O 	O 	0.01881 0.82857 0.87691 -0.41800
O 	O 	0.09696 0.89497 0.99389 -0.25800
O 	O 	0.06262 0.88055 0.91153 -0.51000
C 	C 	0.99569 0.81089 0.90869 0.38900
O 	O 	0.00242 0.80685 0.97033 -0.33000
C 	C 	0.12385 0.66119 0.95390 0.10700
N 	N 	0.11250 0.62877 0.97064 -0.14300
C 	C 	0.10503 0.60414 0.92388 0.12500
N 	N 	0.10938 0.61179 0.86020 -0.14200
C 	C 	0.12037 0.64419 0.84310 0.12900
N 	N 	0.12853 0.66853 0.89003 -0.13600
C 	C 	0.07109 0.71830 0.27583 0.12000
N 	N 	0.06780 0.68902 0.23726 -0.14400
C 	C 	0.07004 0.65664 0.26373 0.13100
N 	N 	0.07813 0.65363 0.32774 -0.14400
C 	C 	0.08292 0.68284 0.36582 0.13100
N 	N 	0.07842 0.71520 0.34020 -0.13500
Cd	Cd	0.82324 0.90887 0.77426 1.24500
Cd	Cd	0.87957 0.92759 0.90676 1.24100
O 	O 	0.76590 0.88606 0.80194 -0.29700
O 	O 	0.77842 0.90044 0.70174 -0.32700
C 	C 	0.75547 0.88861 0.74222 0.27000
O 	O 	0.86936 0.93576 0.72942 -0.34100
O 	O 	0.90741 0.92113 0.81099 -0.38700
C 	C 	0.90075 0.93735 0.75611 0.36500
C 	C 	0.81217 0.97119 0.85110 0.36500
O 	O 	0.85228 0.87606 0.87169 -0.39700
O 	O 	0.79607 0.97254 0.79531 -0.26900
O 	O 	0.82732 0.94150 0.86274 -0.50100
C 	C 	0.86392 0.85301 0.82931 0.38700
O 	O 	0.85254 0.85605 0.76984 -0.31700
Cd	Cd	0.79495 0.01692 0.47043 1.24700
Cd	Cd	0.83745 0.01885 0.31557 1.26500
O 	O 	0.75391 0.96815 0.48233 -0.29600
O 	O 	0.76320 0.00611 0.56209 -0.32400
C 	C 	0.74495 0.97949 0.53982 0.27600
O 	O 	0.83702 0.05756 0.48513 -0.32300
O 	O 	0.84242 0.06807 0.37649 -0.40800
C 	C 	0.85596 0.06776 0.43532 0.36300
C 	C 	0.85135 0.97109 0.44395 0.40700
O 	O 	0.78003 0.02290 0.34617 -0.39400
O 	O 	0.84399 0.97084 0.50608 -0.23500
O 	O 	0.82939 0.98710 0.40723 -0.48900
C 	C 	0.76331 0.05172 0.36106 0.37500
O 	O 	0.75912 0.05785 0.42327 -0.32200
C 	C 	0.61672 0.88839 0.80289 0.12200
N 	N 	0.61915 0.88971 0.86892 -0.14000
C 	C 	0.59127 0.89933 0.90526 0.14300
N 	N 	0.56064 0.90625 0.87560 -0.14600
C 	C 	0.55777 0.90362 0.80981 0.13000
N 	N 	0.58594 0.89503 0.77354 -0.14100
C 	C 	0.60742 0.96419 0.49008 0.12600
N 	N 	0.57524 0.97217 0.51282 -0.14200
C 	C 	0.54753 0.97116 0.47158 0.12800
N 	N 	0.55199 0.96155 0.40818 -0.14100
C 	C 	0.58415 0.95421 0.38517 0.13300
N 	N 	0.61176 0.95524 0.42629 -0.13500
Cd	Cd	0.87403 0.19773 0.18929 1.24600
Cd	Cd	0.87297 0.15345 0.33862 1.21100
O 	O 	0.86020 0.26102 0.19031 -0.29400
O 	O 	0.88144 0.23417 0.10445 -0.33800
C 	C 	0.87368 0.26406 0.13290 0.27800
O 	O 	0.89779 0.14527 0.16540 -0.34800
O 	O 	0.87445 0.11597 0.25157 -0.38200
C 	C 	0.89594 0.11697 0.20178 0.38600
C 	C 	0.92910 0.21039 0.28063 0.35200
O 	O 	0.82978 0.18210 0.28053 -0.42500
O 	O 	0.93766 0.21774 0.22114 -0.29000
O 	O 	0.89712 0.20039 0.28761 -0.49900
C 	C 	0.80978 0.16856 0.23527 0.39400
O 	O 	0.81924 0.17405 0.17545 -0.31500
Cd	Cd	0.91919 0.11895 0.95463 1.25000
Cd	Cd	0.89066 0.05325 0.84338 1.19700
O 	O 	0.89371 0.17787 0.94565 -0.28300
O 	O 	0.93197 0.16603 0.02078 -0.28900
C 	C 	0.91454 0.19015 0.99042 0.24700
O 	O 	0.94474 0.07012 0.99094 -0.34600
O 	O 	0.94123 0.04028 0.89310 -0.43000
C 	C 	0.94593 0.04035 0.95671 0.39600
C 	C 	0.85477 0.08546 0.97557 0.38900
O 	O 	0.91431 0.10880 0.82720 -0.39900
O 	O 	0.86437 0.10211 0.02903 -0.21600
O 	O 	0.87364 0.09055 0.92497 -0.53400
C 	C 	0.94691 0.11750 0.82374 0.35600
O 	O 	0.96198 0.12562 0.87900 -0.35900
C 	C 	0.97721 0.31438 0.89699 0.12700
N 	N 	0.99390 0.34180 0.92680 -0.14300
C 	C 	0.00941 0.36676 0.89052 0.12600
N 	N 	0.00768 0.36455 0.82454 -0.14400
C 	C 	0.99048 0.33750 0.79479 0.13400
N 	N 	0.97545 0.31232 0.83103 -0.12900
C 	C 	0.95966 0.36755 0.21310 0.13000
N 	N 	0.96573 0.35144 0.27038 -0.11400
C 	C 	0.98579 0.36723 0.31681 0.14300
N 	N 	0.99996 0.39924 0.30559 -0.14400
C 	C 	0.99484 0.41498 0.24758 0.13500
N 	N 	0.97393 0.39949 0.20187 -0.14200
Cd	Cd	0.08984 0.05380 0.66091 1.24600
Cd	Cd	0.03826 0.07169 0.80189 1.21700
O 	O 	0.14535 0.08450 0.66491 -0.30500
O 	O 	0.13469 0.04417 0.58960 -0.34100
C 	C 	0.15720 0.06557 0.61690 0.27400
O 	O 	0.04481 0.01549 0.65120 -0.34000
O 	O 	0.00842 0.04782 0.71751 -0.37200
C 	C 	0.01589 0.01828 0.68588 0.40300
C 	C 	0.10576 0.01903 0.77875 0.41800
O 	O 	0.06173 0.10707 0.72243 -0.44100
O 	O 	0.12216 0.00493 0.72947 -0.28900
O 	O 	0.08874 0.04754 0.76631 -0.51700
C 	C 	0.04674 0.11606 0.66833 0.39100
O 	O 	0.05619 0.09813 0.61650 -0.32800
Cd	Cd	0.07009 0.14937 0.43974 1.24800
Cd	Cd	0.02066 0.17006 0.30262 1.19600
O 	O 	0.12883 0.17438 0.44559 -0.30000
O 	O 	0.10935 0.14000 0.52108 -0.33100
C 	C 	0.13623 0.15515 0.49520 0.27500
O 	O 	0.01714 0.12771 0.46199 -0.33000
O 	O 	0.00122 0.12235 0.35450 -0.40900
C 	C 	0.99356 0.12003 0.41681 0.38300
C 	C 	0.03690 0.21561 0.43500 0.39900
O 	O 	0.07423 0.14231 0.31091 -0.41900
O 	O 	0.04767 0.20971 0.49429 -0.26900
O 	O 	0.04843 0.19388 0.39091 -0.54200
C 	C 	0.07989 0.10897 0.32088 0.38400
O 	O 	0.08152 0.09971 0.38137 -0.36700
C 	C 	0.28654 0.05191 0.72366 0.12400
N 	N 	0.28049 0.06344 0.78569 -0.13500
C 	C 	0.30537 0.06002 0.83214 0.13000
N 	N 	0.33601 0.04451 0.81659 -0.14200
C 	C 	0.34233 0.03373 0.75433 0.13200
N 	N 	0.31743 0.03713 0.70812 -0.14300
C 	C 	0.26402 0.09524 0.41735 0.12300
N 	N 	0.26524 0.09810 0.35154 -0.13300
C 	C 	0.29312 0.08581 0.31793 0.13100
N 	N 	0.31937 0.06994 0.35023 -0.14200
C 	C 	0.31731 0.06506 0.41542 0.12800
N 	N 	0.28981 0.07822 0.44920 -0.14000
C 	C 	0.29860 0.07161 0.90014 -0.04300
C 	C 	0.32329 0.09192 0.93566 0.08800
C 	C 	0.32037 0.09525 0.00362 -0.07000
C 	C 	0.29189 0.08092 0.03599 0.00800
C 	C 	0.26498 0.06443 0.99940 0.05900
C 	C 	0.26899 0.05920 0.93188 -0.05000
N 	N 	0.34911 0.10916 0.90466 -0.19600
H 	H 	0.34028 0.10910 0.03138 0.05800
C 	C 	0.29151 0.08172 0.10837 -0.00600
N 	N 	0.23551 0.05331 0.02873 -0.18600
H 	H 	0.24945 0.04466 0.90438 0.07300
C 	C 	0.28476 0.11363 0.14148 -0.08000
C 	C 	0.28662 0.11599 0.20982 0.10800
C 	C 	0.29277 0.08515 0.24581 -0.04300
C 	C 	0.29890 0.05311 0.21260 -0.04900
C 	C 	0.29938 0.05127 0.14428 0.08000
H 	H 	0.27926 0.13700 0.11387 0.06200
N 	N 	0.28395 0.14804 0.24010 -0.19800
H 	H 	0.30377 0.02954 0.24007 0.05400
N 	N 	0.30776 0.02037 0.11364 -0.19700
H 	H 	0.27774 0.17032 0.21346 0.09600
H 	H 	0.28995 0.15157 0.28936 0.10000
H 	H 	0.31272 0.99788 0.14059 0.10100
H 	H 	0.31034 0.01848 0.06318 0.10100
H 	H 	0.21627 0.04019 0.00173 0.12800
H 	H 	0.23094 0.05847 0.07804 0.11100
H 	H 	0.34912 0.11134 0.85411 0.09100
H 	H 	0.36835 0.12249 0.93134 0.08500
C 	C 	0.17020 0.13736 0.49600 -0.06700
C 	C 	0.17186 0.10178 0.47616 -0.00000
C 	C 	0.20327 0.08685 0.45576 0.03000
C 	C 	0.23327 0.10783 0.45306 -0.01400
C 	C 	0.23231 0.14259 0.47723 -0.04700
C 	C 	0.20102 0.15735 0.49914 0.04600
S 	S 	0.20483 0.04177 0.43434 0.02000
S 	S 	0.20071 0.20079 0.53038 -0.02700
H 	H 	0.19438 0.22351 0.48080 0.05200
H 	H 	0.20299 0.03766 0.36805 0.09200
H 	H 	0.14837 0.08613 0.47382 0.07600
H 	H 	0.25564 0.15850 0.47711 0.05200
C 	C 	0.19491 0.06017 0.61139 -0.06600
C 	C 	0.21621 0.08991 0.62035 -0.01100
C 	C 	0.24828 0.08704 0.65157 0.01800
C 	C 	0.25916 0.05420 0.67413 -0.01100
C 	C 	0.24106 0.02377 0.65460 -0.04900
C 	C 	0.20934 0.02657 0.62164 0.04500
S 	S 	0.27396 0.12489 0.66410 -0.03300
S 	S 	0.18830 0.98808 0.59339 0.00700
H 	H 	0.16831 0.97478 0.64198 0.06800
H 	H 	0.26591 0.14020 0.72305 0.04500
H 	H 	0.20590 0.11579 0.61095 0.05300
H 	H 	0.25082 0.99809 0.66752 0.06600
C 	C 	0.98805 0.33553 0.72326 -0.03700
C 	C 	0.97134 0.36229 0.68791 0.10400
C 	C 	0.97289 0.36156 0.61970 -0.08000
C 	C 	0.98931 0.33378 0.58621 -0.00400
C 	C 	0.00445 0.30603 0.62145 0.09200
C 	C 	0.00383 0.30733 0.68980 -0.05500
N 	N 	0.95305 0.38817 0.71897 -0.19800
H 	H 	0.96084 0.38246 0.59248 0.05800
C 	C 	0.99080 0.33442 0.51423 0.00500
N 	N 	0.01939 0.27809 0.59012 -0.19400
H 	H 	0.01608 0.28654 0.71702 0.08000
C 	C 	0.02072 0.34722 0.48429 -0.08300
C 	C 	0.02083 0.35395 0.41738 0.12200
C 	C 	0.98947 0.35117 0.38154 -0.02200
C 	C 	0.96042 0.33564 0.41030 -0.04500
C 	C 	0.96123 0.32616 0.47595 0.08600
H 	H 	0.04397 0.35182 0.51306 0.06200
N 	N 	0.05123 0.36132 0.38735 -0.19400
H 	H 	0.93692 0.33155 0.38201 0.07100
N 	N 	0.93375 0.30902 0.50179 -0.19400
H 	H 	0.07389 0.36525 0.41461 0.09800
H 	H 	0.05318 0.36059 0.33668 0.11500
H 	H 	0.91172 0.30361 0.47354 0.11200
H 	H 	0.93454 0.29965 0.54918 0.11800
H 	H 	0.03038 0.25768 0.61655 0.13900
H 	H 	0.02000 0.27617 0.53945 0.13000
H 	H 	0.94842 0.38758 0.76894 0.09800
H 	H 	0.94191 0.40853 0.69262 0.09200
C 	C 	0.98351 0.11333 0.65724 0.30100
C 	C 	0.01307 0.13368 0.67116 -0.21300
C 	C 	0.00959 0.16165 0.71617 0.26900
C 	C 	0.98410 0.15956 0.76400 0.26400
C 	C 	0.96105 0.13083 0.76265 -0.21800
C 	C 	0.95778 0.11079 0.70481 0.27200
F 	F 	0.93212 0.08654 0.69789 -0.38300
F 	F 	0.98316 0.09102 0.60490 -0.34300
F 	F 	0.98351 0.18351 0.81393 -0.40100
F 	F 	0.03484 0.18643 0.72175 -0.40200
C 	C 	0.92941 0.22581 0.98338 -0.03800
C 	C 	0.96554 0.23026 0.98819 -0.03800
C 	C 	0.98145 0.26032 0.96378 0.03700
C 	C 	0.96109 0.28682 0.93580 -0.02000
C 	C 	0.92491 0.28409 0.93684 -0.03900
C 	C 	0.90891 0.25373 0.95977 0.04300
S 	S 	0.02699 0.26339 0.96476 -0.03000
S 	S 	0.86332 0.25100 0.95801 0.00000
H 	H 	0.85271 0.23750 0.89888 0.06700
H 	H 	0.03979 0.24953 0.90769 0.06600
H 	H 	0.98150 0.20945 0.00756 0.09000
H 	H 	0.90920 0.30498 0.91701 0.05300
C 	C 	0.97363 0.21742 0.44351 0.25600
C 	C 	0.00417 0.23375 0.42311 -0.25000
C 	C 	0.00233 0.25535 0.36886 0.23800
C 	C 	0.97490 0.25108 0.32477 0.24100
C 	C 	0.94929 0.22542 0.33595 -0.25400
C 	C 	0.94691 0.21110 0.39833 0.25100
F 	F 	0.91998 0.18997 0.41396 -0.48200
F 	F 	0.97174 0.20402 0.50396 -0.36300
F 	F 	0.97426 0.27027 0.26979 -0.41100
F 	F 	0.02980 0.27578 0.35320 -0.42300
C 	C 	0.93918 0.34933 0.16237 -0.00900
C 	C 	0.90348 0.35582 0.15845 -0.04500
C 	C 	0.88101 0.32925 0.13566 0.04700
C 	C 	0.89435 0.29572 0.11942 -0.06400
C 	C 	0.93032 0.29196 0.11147 -0.00300
C 	C 	0.95271 0.31903 0.13155 0.02700
S 	S 	0.83621 0.33745 0.13140 -0.00500
S 	S 	0.99774 0.31350 0.12315 0.02500
H 	H 	0.00831 0.32857 0.06658 0.03700
H 	H 	0.82797 0.34906 0.07058 0.04600
H 	H 	0.89298 0.38026 0.17800 0.05600
H 	H 	0.94102 0.26661 0.09787 0.06700
C 	C 	0.51343 0.98398 0.49348 -0.04200
C 	C 	0.50433 0.01988 0.48771 0.09200
C 	C 	0.46940 0.02992 0.49291 -0.08200
C 	C 	0.44352 0.00481 0.50397 -0.01300
C 	C 	0.45311 0.96958 0.51617 0.07800
C 	C 	0.48798 0.95941 0.50992 -0.05700
N 	N 	0.52882 0.04466 0.47563 -0.19900
H 	H 	0.46216 0.05708 0.48517 0.05800
C 	C 	0.40669 0.01442 0.49209 -0.01400
N 	N 	0.42900 0.94547 0.53356 -0.19500
H 	H 	0.49515 0.93210 0.51620 0.05200
C 	C 	0.38946 0.99969 0.43778 -0.06600
C 	C 	0.35718 0.01277 0.41811 0.08800
C 	C 	0.34392 0.04367 0.44846 -0.04200
C 	C 	0.35949 0.05651 0.50613 -0.05500
C 	C 	0.39021 0.04120 0.52958 0.07600
H 	H 	0.40126 0.97809 0.41066 0.05500
N 	N 	0.33860 0.99510 0.37152 -0.19000
H 	H 	0.34827 0.07891 0.53185 0.05500
N 	N 	0.40345 0.05193 0.58812 -0.19400
H 	H 	0.34934 0.97349 0.34665 0.09100
H 	H 	0.31261 0.00115 0.36273 0.09400
H 	H 	0.39153 0.07215 0.61499 0.08900
H 	H 	0.42464 0.03918 0.60884 0.08800
H 	H 	0.43598 0.91919 0.53978 0.08600
H 	H 	0.40345 0.95282 0.54339 0.09200
H 	H 	0.55505 0.03821 0.47248 0.09700
H 	H 	0.52179 0.07099 0.47023 0.09300
C 	C 	0.52570 0.91520 0.77764 -0.04900
C 	C 	0.49293 0.90473 0.80086 0.10300
C 	C 	0.46342 0.92391 0.78357 -0.08400
C 	C 	0.46579 0.95153 0.73953 -0.00700
C 	C 	0.49794 0.95891 0.70977 0.07400
C 	C 	0.52773 0.94085 0.72964 -0.05200
N 	N 	0.48961 0.87597 0.83864 -0.19900
H 	H 	0.43857 0.91757 0.80485 0.05800
C 	C 	0.43551 0.97486 0.73079 0.00600
N 	N 	0.50045 0.98360 0.66303 -0.19400
H 	H 	0.55274 0.94792 0.70987 0.05500
C 	C 	0.43698 0.00938 0.75619 -0.09900
C 	C 	0.40727 0.03054 0.75759 0.10600
C 	C 	0.37507 0.01590 0.73813 -0.06100
C 	C 	0.37401 0.98235 0.70854 -0.03900
C 	C 	0.40408 0.96177 0.70396 0.06600
H 	H 	0.46130 0.01973 0.77507 0.05900
N 	N 	0.40995 0.06506 0.77563 -0.20000
H 	H 	0.34950 0.97173 0.69109 0.05300
N 	N 	0.40254 0.92939 0.67463 -0.19300
H 	H 	0.43347 0.07526 0.79303 0.08700
H 	H 	0.38942 0.08250 0.76879 0.08900
H 	H 	0.37894 0.91938 0.65729 0.08700
H 	H 	0.42488 0.91454 0.66617 0.08800
H 	H 	0.52451 0.98977 0.64303 0.09300
H 	H 	0.47853 0.99613 0.64471 0.09200
H 	H 	0.51039 0.85889 0.84602 0.09400
H 	H 	0.46555 0.86934 0.85814 0.08800
C 	C 	0.59456 0.90414 0.97653 -0.09600
C 	C 	0.61770 0.92930 0.00451 0.15400
C 	C 	0.61888 0.93399 0.07246 -0.10100
C 	C 	0.59560 0.91624 0.11245 0.01400
C 	C 	0.57217 0.89142 0.08450 0.05500
C 	C 	0.57243 0.88514 0.01689 0.00100
N 	N 	0.63768 0.95005 0.96658 -0.21100
H 	H 	0.63678 0.95294 0.09406 0.08100
C 	C 	0.59401 0.92618 0.18261 -0.00600
N 	N 	0.54921 0.87383 0.12201 -0.19000
H 	H 	0.55469 0.86598 0.99542 0.03000
C 	C 	0.57735 0.95757 0.20111 -0.08100
C 	C 	0.57612 0.96850 0.26673 0.11400
C 	C 	0.58925 0.94605 0.31523 -0.04600
C 	C 	0.60641 0.91490 0.29670 -0.04900
C 	C 	0.60960 0.90509 0.23067 0.08100
H 	H 	0.56620 0.97410 0.16407 0.06400
N 	N 	0.56372 0.00106 0.28250 -0.20200
H 	H 	0.61710 0.89809 0.33377 0.05800
N 	N 	0.62743 0.87541 0.21390 -0.19400
H 	H 	0.55232 0.01661 0.24692 0.09500
H 	H 	0.56727 0.01216 0.32893 0.10100
H 	H 	0.63836 0.85973 0.24978 0.10000
H 	H 	0.63107 0.86785 0.16530 0.10400
H 	H 	0.53211 0.85553 0.10088 0.09200
H 	H 	0.54794 0.87816 0.17224 0.09300
H 	H 	0.63417 0.95088 0.91629 0.10600
H 	H 	0.65585 0.96723 0.98782 0.10800
C 	C 	0.77713 0.07718 0.25299 0.25400
C 	C 	0.76168 0.08092 0.31470 -0.20600
C 	C 	0.75147 0.11466 0.33646 0.27100
C 	C 	0.76375 0.14435 0.30491 0.26800
C 	C 	0.78543 0.14035 0.25066 -0.21900
C 	C 	0.78930 0.10688 0.22130 0.28000
F 	F 	0.80737 0.10289 0.16508 -0.36000
F 	F 	0.78203 0.04478 0.22553 -0.40500
F 	F 	0.75681 0.17693 0.32985 -0.38900
F 	F 	0.73141 0.11872 0.39020 -0.38200
C 	C 	0.93916 0.11429 0.48252 0.29400
C 	C 	0.96173 0.10058 0.43473 -0.19700
C 	C 	0.95106 0.07137 0.39653 0.26700
C 	C 	0.91711 0.05876 0.40071 0.26100
C 	C 	0.89340 0.07494 0.44353 -0.21600
C 	C 	0.90499 0.10169 0.48657 0.27500
F 	F 	0.88275 0.11674 0.52987 -0.37100
F 	F 	0.94985 0.14046 0.52358 -0.33200
F 	F 	0.90671 0.03190 0.36066 -0.46900
F 	F 	0.97317 0.05622 0.35310 -0.48300
C 	C 	0.70892 0.97399 0.56131 -0.04800
C 	C 	0.68689 0.00329 0.56712 -0.03300
C 	C 	0.65152 0.99991 0.55209 0.03400
C 	C 	0.63798 0.96672 0.53334 -0.02200
C 	C 	0.65855 0.93670 0.54150 -0.04000
C 	C 	0.69400 0.94019 0.55521 0.03900
S 	S 	0.62516 0.03767 0.55248 -0.01700
S 	S 	0.71998 0.90224 0.55907 -0.00100
H 	H 	0.73151 0.89333 0.49797 0.06200
H 	H 	0.60943 0.04136 0.61186 0.04100
H 	H 	0.69779 0.02922 0.57639 0.07200
H 	H 	0.64770 0.91084 0.53135 0.05300
C 	C 	0.96412 0.93873 0.72820 0.27900
C 	C 	0.93033 0.95193 0.71875 -0.19500
C 	C 	0.92592 0.98199 0.68080 0.28200
C 	C 	0.95499 0.00073 0.65951 0.27100
C 	C 	0.98853 0.99101 0.67958 -0.16300
C 	C 	0.99308 0.95855 0.70980 0.26800
F 	F 	0.02543 0.94718 0.72488 -0.41800
F 	F 	0.96889 0.90709 0.75629 -0.46400
F 	F 	0.95051 0.02897 0.62118 -0.32000
F 	F 	0.89363 0.99395 0.66691 -0.38300
C 	C 	0.82379 0.99622 0.96320 0.27200
C 	C 	0.80885 0.99963 0.90104 -0.23400
C 	C 	0.79464 0.03237 0.88435 0.24700
C 	C 	0.80258 0.06227 0.92219 0.25600
C 	C 	0.82661 0.05974 0.97325 -0.20600
C 	C 	0.83244 0.02656 0.99978 0.25900
F 	F 	0.85030 0.02373 0.05649 -0.33100
F 	F 	0.83050 0.96394 0.98737 -0.41800
F 	F 	0.79198 0.09439 0.90234 -0.38700
F 	F 	0.77498 0.03557 0.82985 -0.39500
C 	C 	0.64846 0.88766 0.76393 -0.01600
C 	C 	0.66439 0.91953 0.74873 -0.04400
C 	C 	0.69941 0.92022 0.73168 0.03900
C 	C 	0.71829 0.88847 0.72729 -0.06100
C 	C 	0.70041 0.85638 0.73056 -0.01300
C 	C 	0.66576 0.85580 0.75050 0.01800
S 	S 	0.72024 0.96111 0.72406 0.01400
S 	S 	0.64487 0.81517 0.76128 -0.02300
H 	H 	0.64934 0.80492 0.82429 0.04700
H 	H 	0.72643 0.97516 0.78490 0.08000
H 	H 	0.65042 0.94406 0.75581 0.05300
H 	H 	0.71442 0.83184 0.72424 0.05400
C 	C 	0.06490 0.62459 0.22312 -0.05200
C 	C 	0.03138 0.61479 0.20070 0.10600
C 	C 	0.02406 0.57912 0.18770 -0.08900
C 	C 	0.04926 0.55335 0.19884 -0.00200
C 	C 	0.08403 0.56378 0.20990 0.07200
C 	C 	0.09159 0.59955 0.22112 -0.05000
N 	N 	0.00595 0.63918 0.19341 -0.20200
H 	H 	0.99791 0.57115 0.17466 0.06400
C 	C 	0.03770 0.51717 0.21354 -0.00500
N 	N 	0.10996 0.53962 0.21193 -0.19400
H 	H 	0.11780 0.60746 0.23397 0.05000
C 	C 	0.04117 0.49035 0.16615 -0.08900
C 	C 	0.02985 0.45599 0.17854 0.10400
C 	C 	0.01065 0.44961 0.23575 -0.05200
C 	C 	0.00692 0.47653 0.28285 -0.05500
C 	C 	0.02150 0.50984 0.27351 0.07500
H 	H 	0.05403 0.49588 0.12076 0.05700
N 	N 	0.03926 0.42909 0.13763 -0.20000
H 	H 	0.99299 0.47140 0.32741 0.05700
N 	N 	0.02017 0.53449 0.32243 -0.19400
H 	H 	0.05337 0.43410 0.09560 0.09000
H 	H 	0.03498 0.40287 0.14939 0.09800
H 	H 	0.00702 0.52926 0.36552 0.08800
H 	H 	0.03325 0.55844 0.31940 0.09300
H 	H 	0.13541 0.54748 0.22217 0.08700
H 	H 	0.10537 0.51303 0.20154 0.08900
H 	H 	0.01105 0.66603 0.19792 0.09900
H 	H 	0.98087 0.63139 0.18014 0.09900
C 	C 	0.08814 0.57094 0.94163 -0.04600
C 	C 	0.05580 0.56105 0.91410 0.10100
C 	C 	0.04410 0.52635 0.92002 -0.08500
C 	C 	0.06264 0.50225 0.95745 -0.00800
C 	C 	0.09291 0.51346 0.99137 0.06200
C 	C 	0.10565 0.54765 0.98229 -0.06800
N 	N 	0.03556 0.58494 0.88345 -0.19900
H 	H 	0.02046 0.51803 0.89540 0.05600
C 	C 	0.05212 0.46468 0.95498 -0.00600
N 	N 	0.10974 0.49165 0.03257 -0.18800
H 	H 	0.12969 0.55580 0.00563 0.06400
C 	C 	0.07310 0.44035 0.92134 -0.08900
C 	C 	0.06093 0.40633 0.90648 0.10300
C 	C 	0.02650 0.39723 0.92242 -0.05300
C 	C 	0.00670 0.42030 0.96120 -0.05400
C 	C 	0.01927 0.45398 0.97802 0.05500
H 	H 	0.09868 0.44819 0.90540 0.05600
N 	N 	0.08242 0.38245 0.87749 -0.19900
H 	H 	0.98085 0.41265 0.97586 0.05000
N 	N 	0.99980 0.47582 0.01627 -0.18300
H 	H 	0.10737 0.38976 0.86344 0.08900
H 	H 	0.07517 0.35610 0.87142 0.09700
H 	H 	0.97544 0.46786 0.03245 0.09400
H 	H 	0.00908 0.50036 0.03209 0.09100
H 	H 	0.13229 0.50000 0.05668 0.08700
H 	H 	0.10007 0.46673 0.04274 0.08700
H 	H 	0.04137 0.61178 0.88542 0.09500
H 	H 	0.01254 0.57703 0.86043 0.09000
C 	C 	0.09077 0.67922 0.43588 -0.04600
C 	C 	0.11961 0.69641 0.46552 0.10600
C 	C 	0.12513 0.69338 0.53283 -0.08300
C 	C 	0.10430 0.67114 0.56978 -0.00300
C 	C 	0.07634 0.65282 0.53964 0.07600
C 	C 	0.06946 0.65765 0.47328 -0.05000
N 	N 	0.14284 0.71453 0.42947 -0.19800
H 	H 	0.14660 0.70723 0.55602 0.06100
C 	C 	0.11190 0.66733 0.64014 -0.00100
N 	N 	0.05620 0.63041 0.57388 -0.19300
H 	H 	0.04756 0.64430 0.45050 0.05400
C 	C 	0.09215 0.68652 0.68559 -0.08500
C 	C 	0.09426 0.67929 0.75224 0.10900
C 	C 	0.11880 0.65433 0.77420 -0.04900
C 	C 	0.14009 0.63675 0.72902 -0.05000
C 	C 	0.13662 0.64263 0.66202 0.07100
H 	H 	0.07350 0.70564 0.66864 0.07000
N 	N 	0.07176 0.69528 0.79424 -0.20000
H 	H 	0.15886 0.61772 0.74591 0.05100
N 	N 	0.15671 0.62417 0.61911 -0.19400
H 	H 	0.05481 0.71467 0.77788 0.10800
H 	H 	0.06961 0.68761 0.84249 0.10100
H 	H 	0.17469 0.60583 0.63575 0.08700
H 	H 	0.15484 0.62783 0.56904 0.09000
H 	H 	0.03534 0.61741 0.55137 0.09000
H 	H 	0.06130 0.62515 0.62263 0.09300
H 	H 	0.14251 0.71314 0.37872 0.09800
H 	H 	0.16296 0.72859 0.45222 0.09400
C 	C 	0.00283 0.96743 0.01955 0.27700
C 	C 	0.97946 0.93904 0.01503 -0.16200
C 	C 	0.94393 0.94626 0.01003 0.26300
C 	C 	0.93272 0.98018 0.99506 0.25400
C 	C 	0.95678 0.00750 0.98819 -0.22700
C 	C 	0.99185 0.00139 0.00310 0.33700
F 	F 	0.01557 0.02746 0.99670 -0.38000
F 	F 	0.03678 0.96153 0.03297 -0.36700
F 	F 	0.89887 0.98581 0.98173 -0.47600
F 	F 	0.92053 0.91969 0.01349 -0.43700
C 	C 	0.93181 0.80770 0.92759 0.27900
C 	C 	0.95980 0.80852 0.88392 -0.21700
C 	C 	0.95313 0.81437 0.81771 0.25600
C 	C 	0.92059 0.82625 0.79805 0.27900
C 	C 	0.89415 0.83108 0.84423 -0.21200
C 	C 	0.89913 0.81915 0.90779 0.26700
F 	F 	0.87268 0.82021 0.95115 -0.38100
F 	F 	0.93658 0.79739 0.98985 -0.38100
F 	F 	0.91550 0.83527 0.73514 -0.37200
F 	F 	0.97884 0.81073 0.77316 -0.40300
C 	C 	0.12265 0.95218 0.90393 0.28500
C 	C 	0.08917 0.93820 0.90973 -0.21800
C 	C 	0.06071 0.95711 0.88576 0.28500
C 	C 	0.06594 0.98779 0.85138 0.29300
C 	C 	0.09965 0.99885 0.83735 -0.24000
C 	C 	0.12788 0.98250 0.86782 0.28800
F 	F 	0.16061 0.99435 0.85792 -0.40000
F 	F 	0.15030 0.93512 0.92945 -0.39000
F 	F 	0.03824 0.00486 0.82644 -0.49900
F 	F 	0.02805 0.94531 0.89411 -0.50200
C 	C 	0.10794 0.75933 0.04556 -0.07200
C 	C 	0.14218 0.74889 0.03281 -0.01300
C 	C 	0.14903 0.71476 0.00909 0.02700
C 	C 	0.12164 0.69048 0.00169 -0.00300
C 	C 	0.08932 0.69868 0.02869 -0.04900
C 	C 	0.08211 0.73308 0.04986 0.04300
S 	S 	0.19157 0.70306 0.98713 -0.04900
S 	S 	0.03942 0.74383 0.07238 0.00500
H 	H 	0.03085 0.72529 0.12633 0.04000
H 	H 	0.20816 0.68911 0.03973 0.05000
H 	H 	0.16273 0.76837 0.03391 0.05300
H 	H 	0.06869 0.67928 0.02703 0.05800
C 	C 	0.94668 0.08610 0.15042 0.27600
C 	C 	0.91415 0.08418 0.18049 -0.19500
C 	C 	0.90094 0.05086 0.19639 0.30700
C 	C 	0.92241 0.02098 0.19287 0.26400
C 	C 	0.95685 0.02410 0.17184 -0.16600
C 	C 	0.96738 0.05598 0.14426 0.27800
F 	F 	0.99914 0.05865 0.11716 -0.32000
F 	F 	0.95924 0.11750 0.13070 -0.40400
F 	F 	0.91056 0.98975 0.21454 -0.37000
F 	F 	0.86752 0.04744 0.21541 -0.44200
C 	C 	0.91316 0.93134 0.32342 0.30100
C 	C 	0.94545 0.93762 0.35368 -0.22500
C 	C 	0.94661 0.95373 0.41583 0.27600
C 	C 	0.91569 0.96318 0.44745 0.29100
C 	C 	0.88352 0.95625 0.41716 -0.20700
C 	C 	0.88257 0.93973 0.35563 0.26400
F 	F 	0.85170 0.93254 0.32621 -0.39800
F 	F 	0.91147 0.91738 0.26212 -0.35200
F 	F 	0.91704 0.98009 0.50623 -0.35500
F 	F 	0.97751 0.95996 0.44576 -0.43100
C 	C 	0.12204 0.02867 0.26917 0.26300
C 	C 	0.09641 0.01735 0.22508 -0.21400
C 	C 	0.07836 0.04276 0.18987 0.27400
C 	C 	0.07656 0.07728 0.21473 0.27200
C 	C 	0.09573 0.08635 0.27073 -0.21700
C 	C 	0.12282 0.06395 0.28942 0.27100
F 	F 	0.14615 0.07486 0.33506 -0.41600
F 	F 	0.14327 0.00500 0.29770 -0.40700
F 	F 	0.05341 0.10027 0.18966 -0.39800
F 	F 	0.06027 0.03329 0.13562 -0.33100
C 	C 	0.06609 0.75333 0.24833 -0.01400
C 	C 	0.09511 0.77337 0.23196 -0.04400
C 	C 	0.09124 0.80841 0.21362 0.04900
C 	C 	0.05782 0.82326 0.20886 -0.05400
C 	C 	0.02866 0.80226 0.22038 -0.00800
C 	C 	0.03263 0.76780 0.24214 0.01300
S 	S 	0.12850 0.83387 0.19910 0.00200
S 	S 	0.99565 0.74364 0.26402 0.00900
H 	H 	0.98201 0.72695 0.21004 0.04600
H 	H 	0.13902 0.82917 0.13597 0.05400
H 	H 	0.12083 0.76210 0.23580 0.05200
H 	H 	0.00294 0.81356 0.21698 0.07400
