data_crystal

_cell_length_a 38.42961
_cell_length_b 37.40324
_cell_length_c 23.72046
_cell_angle_alpha 91.96887
_cell_angle_beta  88.83519
_cell_angle_gamma 90.02260

_symmetry_space_group_name_	'P 1'
_symmetry_space_group_name_H-M	'P 1'

loop_
_symmetry_equiv_pos_as_xyz
  x,y,z

loop_
_atom_site_label
_atom_site_type_symbol
_atom_site_fract_x
_atom_site_fract_y
_atom_site_fract_z
_atom_site_charge
Cd	Cd	0.16422 0.90800 0.23657 1.24100
Cd	Cd	0.12981 0.95886 0.35457 1.18300
O 	O 	0.21394 0.86764 0.24949 -0.30500
O 	O 	0.18644 0.86886 0.16921 -0.33000
C 	C 	0.21126 0.85505 0.19797 0.24000
O 	O 	0.11548 0.93214 0.20481 -0.37000
O 	O 	0.11335 0.97862 0.27056 -0.42300
C 	C 	0.09847 0.95893 0.23066 0.33600
C 	C 	0.12005 0.87375 0.31657 0.34800
O 	O 	0.18452 0.95660 0.31135 -0.43400
O 	O 	0.12440 0.85397 0.27050 -0.26100
O 	O 	0.13959 0.90203 0.31990 -0.53400
C 	C 	0.19501 0.97596 0.26963 0.34600
O 	O 	0.19390 0.96052 0.21948 -0.35500
Cd	Cd	0.00202 0.89893 0.02494 1.24600
Cd	Cd	0.98714 0.90746 0.87881 1.19100
O 	O 	0.05882 0.87589 0.05319 -0.29800
O 	O 	0.01898 0.89287 0.11585 -0.31500
C 	C 	0.04962 0.87884 0.10617 0.24600
O 	O 	0.95180 0.92974 0.02252 -0.34200
O 	O 	0.93828 0.90958 0.93312 -0.39000
C 	C 	0.93301 0.93197 0.97660 0.32200
C 	C 	0.03194 0.95733 0.96718 0.35100
O 	O 	0.99980 0.85865 0.93212 -0.45000
O 	O 	0.03369 0.96272 0.02186 -0.26000
O 	O 	0.02206 0.92558 0.95102 -0.53800
C 	C 	0.97694 0.83863 0.95725 0.32700
O 	O 	0.97210 0.84578 0.01111 -0.30900
C 	C 	0.08680 0.66936 0.05939 0.09700
N 	N 	0.10555 0.66960 0.01016 -0.12000
C 	C 	0.09921 0.64480 0.96835 0.11400
N 	N 	0.07449 0.61943 0.97636 -0.14200
C 	C 	0.05563 0.61915 0.02534 0.12600
N 	N 	0.06168 0.64422 0.06676 -0.13600
C 	C 	0.18426 0.64862 0.28892 0.09900
N 	N 	0.18730 0.65170 0.34588 -0.12300
C 	C 	0.16583 0.63283 0.38007 0.12200
N 	N 	0.14153 0.61067 0.35709 -0.13800
C 	C 	0.13849 0.60747 0.30019 0.12400
N 	N 	0.15986 0.62648 0.26620 -0.13400
Cd	Cd	0.80374 0.82700 0.76164 1.24200
Cd	Cd	0.82015 0.87245 0.89247 1.20200
O 	O 	0.76412 0.77494 0.76009 -0.29600
O 	O 	0.78520 0.79751 0.68211 -0.34100
C 	C 	0.76592 0.77332 0.70534 0.24300
O 	O 	0.83373 0.87605 0.73795 -0.36500
O 	O 	0.85940 0.88469 0.82398 -0.38000
C 	C 	0.85220 0.89605 0.77349 0.32500
C 	C 	0.75297 0.87535 0.80911 0.34000
O 	O 	0.82920 0.81370 0.86076 -0.44600
O 	O 	0.74647 0.86711 0.75639 -0.26700
O 	O 	0.77765 0.85699 0.83080 -0.54000
C 	C 	0.85697 0.80121 0.83451 0.33600
O 	O 	0.85515 0.79799 0.77969 -0.31700
Cd	Cd	0.92738 0.90590 0.45270 1.24600
Cd	Cd	0.96756 0.89314 0.31723 1.19200
O 	O 	0.89577 0.85597 0.49557 -0.30300
O 	O 	0.90242 0.90758 0.54076 -0.30700
C 	C 	0.88864 0.87580 0.54046 0.24600
O 	O 	0.95879 0.95558 0.44236 -0.33800
O 	O 	0.96224 0.95080 0.34589 -0.42400
C 	C 	0.97341 0.96479 0.39406 0.32000
C 	C 	0.99211 0.86922 0.44145 0.33700
O 	O 	0.90998 0.88922 0.34795 -0.44900
O 	O 	0.98532 0.87816 0.49435 -0.24800
O 	O 	0.96681 0.87377 0.40724 -0.53700
C 	C 	0.88727 0.91515 0.35222 0.34200
O 	O 	0.88306 0.93009 0.40239 -0.33100
C 	C 	0.56618 0.73513 0.76394 0.09900
N 	N 	0.53839 0.75575 0.75209 -0.12500
C 	C 	0.51862 0.77101 0.79454 0.12200
N 	N 	0.52704 0.76586 0.84903 -0.13900
C 	C 	0.55522 0.74585 0.86120 0.12200
N 	N 	0.57450 0.73014 0.81855 -0.13500
C 	C 	0.67254 0.87714 0.49226 0.10200
N 	N 	0.66749 0.85527 0.44618 -0.12300
C 	C 	0.64075 0.86150 0.41118 0.12400
N 	N 	0.61887 0.88940 0.42273 -0.13800
C 	C 	0.62371 0.91123 0.46882 0.12500
N 	N 	0.65064 0.90515 0.50347 -0.13200
Cd	Cd	0.90901 0.06933 0.13096 1.24500
Cd	Cd	0.92004 0.05700 0.27782 1.18700
O 	O 	0.86194 0.10913 0.10271 -0.30100
O 	O 	0.90035 0.08706 0.04116 -0.29800
C 	C 	0.87284 0.10681 0.05052 0.24400
O 	O 	0.95879 0.03831 0.13501 -0.34300
O 	O 	0.94514 0.01499 0.22074 -0.40900
C 	C 	0.96806 0.02112 0.18020 0.34900
C 	C 	0.94370 0.12341 0.19655 0.35000
O 	O 	0.87375 0.04625 0.21839 -0.45100
O 	O 	0.94790 0.12801 0.14252 -0.25000
O 	O 	0.92152 0.09870 0.20985 -0.52900
C 	C 	0.86821 0.01658 0.18943 0.33100
O 	O 	0.87773 0.01663 0.13628 -0.31400
Cd	Cd	0.76032 0.08034 0.92518 1.24200
Cd	Cd	0.78300 0.02727 0.80255 1.18600
O 	O 	0.70584 0.11507 0.92580 -0.30800
O 	O 	0.73864 0.11382 0.00032 -0.31900
C 	C 	0.71106 0.12665 0.97725 0.23500
O 	O 	0.80552 0.04789 0.95231 -0.36600
O 	O 	0.82700 0.03408 0.86337 -0.40500
C 	C 	0.82493 0.02747 0.91761 0.32900
C 	C 	0.72643 0.01377 0.90420 0.33900
O 	O 	0.77409 0.08836 0.81707 -0.45100
O 	O 	0.72080 0.02500 0.95644 -0.26400
O 	O 	0.74180 0.03627 0.87188 -0.54700
C 	C 	0.79707 0.11234 0.83185 0.34100
O 	O 	0.79789 0.12109 0.88553 -0.33100
C 	C 	0.74610 0.33104 0.88676 0.09900
N 	N 	0.74334 0.32671 0.82990 -0.12300
C 	C 	0.76459 0.34526 0.79491 0.12200
N 	N 	0.78834 0.36844 0.81698 -0.13900
C 	C 	0.79114 0.37289 0.87381 0.12300
N 	N 	0.77004 0.35409 0.90861 -0.13500
C 	C 	0.84035 0.31538 0.11516 0.09700
N 	N 	0.82109 0.31196 0.16345 -0.12400
C 	C 	0.82503 0.33583 0.20745 0.12100
N 	N 	0.84786 0.36331 0.20264 -0.13800
C 	C 	0.86725 0.36667 0.15469 0.12200
N 	N 	0.86360 0.34261 0.11107 -0.13400
Cd	Cd	0.98240 0.08301 0.69727 1.24500
Cd	Cd	0.93940 0.08706 0.83181 1.21400
O 	O 	0.02803 0.12732 0.67733 -0.30600
O 	O 	0.01777 0.08197 0.61859 -0.30700
C 	C 	0.03620 0.11039 0.63015 0.24200
O 	O 	0.95039 0.03275 0.69892 -0.35400
O 	O 	0.91072 0.05387 0.76603 -0.35700
C 	C 	0.92398 0.02730 0.73437 0.36400
C 	C 	0.01700 0.05668 0.79274 0.35500
O 	O 	0.94458 0.12742 0.76023 -0.45000
O 	O 	0.03276 0.04620 0.74575 -0.29000
O 	O 	0.99211 0.07959 0.78729 -0.52000
C 	C 	0.92325 0.12989 0.71862 0.33100
O 	O 	0.93390 0.11491 0.67073 -0.31200
Cd	Cd	0.10912 0.15293 0.40270 1.24300
Cd	Cd	0.09234 0.11902 0.26332 1.21500
O 	O 	0.13271 0.21407 0.41637 -0.30800
O 	O 	0.11807 0.18104 0.48765 -0.33100
C 	C 	0.13134 0.21093 0.47085 0.24100
O 	O 	0.08033 0.10202 0.41702 -0.36700
O 	O 	0.09168 0.07730 0.32895 -0.39800
C 	C 	0.07218 0.07948 0.37523 0.33000
C 	C 	0.04818 0.17448 0.34669 0.34400
O 	O 	0.14305 0.13756 0.30713 -0.41300
O 	O 	0.04607 0.18314 0.40055 -0.26500
O 	O 	0.07835 0.16317 0.32853 -0.53100
C 	C 	0.16389 0.11792 0.33587 0.33100
O 	O 	0.16034 0.12131 0.39065 -0.36500
C 	C 	0.25137 0.10332 0.69754 0.09800
N 	N 	0.25692 0.12541 0.74319 -0.12400
C 	C 	0.28166 0.11723 0.78081 0.12200
N 	N 	0.30099 0.08707 0.77240 -0.13900
C 	C 	0.29557 0.06497 0.72685 0.12300
N 	N 	0.27072 0.07310 0.68947 -0.13400
C 	C 	0.33414 0.22957 0.43947 0.09800
N 	N 	0.32967 0.23497 0.38378 -0.12500
C 	C 	0.34916 0.21655 0.34421 0.12200
N 	N 	0.37397 0.19350 0.36065 -0.13900
C 	C 	0.37892 0.18830 0.41633 0.12200
N 	N 	0.35881 0.20622 0.45576 -0.13400
C 	C 	0.28660 0.14008 0.83197 -0.01900
C 	C 	0.25766 0.15398 0.86251 -0.01400
C 	C 	0.26206 0.17088 0.91544 -0.05000
C 	C 	0.29540 0.17404 0.93823 0.02500
C 	C 	0.32448 0.16194 0.90633 -0.05100
C 	C 	0.32011 0.14511 0.85343 -0.01500
C 	C 	0.29957 0.18664 0.99739 -0.01900
C 	C 	0.32085 0.21623 0.01022 -0.00900
C 	C 	0.32791 0.22565 0.06643 -0.04900
C 	C 	0.31372 0.20557 0.11023 0.01600
C 	C 	0.29157 0.17670 0.09743 -0.04500
C 	C 	0.28453 0.16729 0.04130 -0.01700
C 	C 	0.32358 0.21337 0.16922 0.01300
C 	C 	0.29788 0.22180 0.21038 -0.04300
C 	C 	0.30646 0.22438 0.26738 -0.01700
C 	C 	0.34091 0.21862 0.28378 -0.01600
C 	C 	0.36693 0.21205 0.24221 -0.01800
C 	C 	0.35827 0.20935 0.18524 -0.04400
H 	H 	0.23168 0.15044 0.84635 0.05000
H 	H 	0.23948 0.18050 0.93948 0.05000
H 	H 	0.35034 0.16443 0.92338 0.04600
H 	H 	0.34271 0.13510 0.82981 0.04100
H 	H 	0.33242 0.23147 0.97664 0.03100
H 	H 	0.34482 0.24815 0.07591 0.04800
H 	H 	0.28055 0.16100 0.13093 0.05300
H 	H 	0.26819 0.14433 0.03186 0.04700
H 	H 	0.27108 0.22534 0.19836 0.04900
H 	H 	0.28610 0.22960 0.29884 0.05100
H 	H 	0.39371 0.20829 0.25409 0.04500
H 	H 	0.37834 0.20304 0.15374 0.04600
C 	C 	0.26203 0.27160 0.50433 0.11500
C 	C 	0.22873 0.28380 0.49148 -0.08500
C 	C 	0.19966 0.26715 0.51592 0.01100
C 	C 	0.20333 0.23744 0.54833 0.12100
C 	C 	0.23664 0.22478 0.56025 -0.09200
C 	C 	0.26577 0.24335 0.53975 0.02300
O 	O 	0.29002 0.27578 0.46719 -0.20200
C 	C 	0.31011 0.24646 0.48137 0.10000
C 	C 	0.29625 0.22749 0.52537 -0.08600
O 	O 	0.17490 0.21454 0.54650 -0.19000
C 	C 	0.15483 0.23179 0.50731 0.05600
C 	C 	0.16890 0.26371 0.49026 -0.06000
H 	H 	0.22553 0.30289 0.45863 0.06900
H 	H 	0.23969 0.19912 0.57947 0.07800
H 	H 	0.30192 0.19958 0.53213 0.06600
H 	H 	0.16289 0.27599 0.45085 0.06400
C 	C 	0.12188 0.10566 0.57741 0.11200
C 	C 	0.15293 0.08601 0.57893 -0.08400
C 	C 	0.18306 0.10373 0.59747 0.02100
C 	C 	0.18146 0.13784 0.62157 0.12100
C 	C 	0.14986 0.15651 0.62372 -0.07700
C 	C 	0.12105 0.14081 0.59716 0.02900
O 	O 	0.08947 0.08910 0.57754 -0.17800
C 	C 	0.06933 0.11729 0.60062 0.06500
C 	C 	0.08789 0.14824 0.61162 -0.05700
O 	O 	0.20773 0.14540 0.65957 -0.20200
C 	C 	0.22491 0.11249 0.65652 0.09900
C 	C 	0.21045 0.08749 0.61981 -0.08300
H 	H 	0.15300 0.05741 0.56995 0.07000
H 	H 	0.14724 0.18132 0.64838 0.07800
H 	H 	0.07998 0.16903 0.64222 0.07000
H 	H 	0.21328 0.05878 0.62273 0.06600
C 	C 	0.76234 0.33990 0.73313 -0.01600
C 	C 	0.76486 0.36933 0.69804 -0.01800
C 	C 	0.76541 0.36410 0.63936 -0.04600
C 	C 	0.76358 0.32941 0.61515 0.01600
C 	C 	0.76032 0.30002 0.65010 -0.04500
C 	C 	0.75955 0.30524 0.70886 -0.01600
C 	C 	0.76698 0.32382 0.55336 0.00700
C 	C 	0.74043 0.33509 0.51829 -0.03700
C 	C 	0.74520 0.33333 0.45960 -0.03700
C 	C 	0.77670 0.32054 0.43550 0.00700
C 	C 	0.80273 0.30806 0.47061 -0.03600
C 	C 	0.79785 0.30962 0.52926 -0.03600
C 	C 	0.78374 0.32338 0.37421 0.01600
C 	C 	0.78299 0.35696 0.34959 -0.04600
C 	C 	0.79419 0.36056 0.29363 -0.01700
C 	C 	0.80653 0.33069 0.26175 -0.01700
C 	C 	0.80534 0.29673 0.28529 -0.01600
C 	C 	0.79399 0.29310 0.34130 -0.04500
H 	H 	0.76669 0.39622 0.71622 0.04400
H 	H 	0.76789 0.38695 0.61270 0.04600
H 	H 	0.75884 0.27314 0.63178 0.05000
H 	H 	0.75770 0.28230 0.73544 0.05200
H 	H 	0.71641 0.34588 0.53652 0.04400
H 	H 	0.72480 0.34271 0.43293 0.04300
H 	H 	0.82718 0.29823 0.45256 0.04600
H 	H 	0.81847 0.30081 0.55600 0.04700
H 	H 	0.77494 0.38048 0.37442 0.04500
H 	H 	0.79446 0.38681 0.27568 0.04300
H 	H 	0.81465 0.27343 0.26113 0.05000
H 	H 	0.79418 0.26697 0.35962 0.04900
C 	C 	0.87626 0.15940 0.77557 -0.11100
C 	C 	0.88599 0.13561 0.73098 -0.14300
C 	C 	0.86144 0.11077 0.71040 0.34300
C 	C 	0.83065 0.10506 0.74114 -0.08000
C 	C 	0.82392 0.12469 0.79173 -0.15200
C 	C 	0.84543 0.15385 0.80621 0.33900
F 	F 	0.83718 0.17594 0.85111 -0.44600
H 	H 	0.89407 0.18017 0.78963 0.08600
H 	H 	0.81311 0.08397 0.72741 0.06500
F 	F 	0.86879 0.08993 0.66371 -0.41500
C 	C 	0.69902 0.21570 0.02138 0.12800
C 	C 	0.71778 0.24771 0.02776 -0.08500
C 	C 	0.70980 0.27612 0.99309 0.01800
C 	C 	0.68655 0.27181 0.94974 0.11400
C 	C 	0.66807 0.23970 0.94295 -0.08200
C 	C 	0.67338 0.21260 0.98146 0.00300
O 	O 	0.71323 0.18312 0.03567 -0.18400
C 	C 	0.69515 0.16034 0.99871 0.05100
C 	C 	0.67056 0.17760 0.96782 -0.05600
O 	O 	0.69323 0.29374 0.90462 -0.20000
C 	C 	0.72292 0.31114 0.92454 0.10100
C 	C 	0.73291 0.30099 0.97717 -0.08500
H 	H 	0.73970 0.24939 0.05562 0.08000
H 	H 	0.65282 0.23463 0.90559 0.06900
H 	H 	0.66057 0.16729 0.92805 0.06400
H 	H 	0.75920 0.30321 0.99264 0.07100
C 	C 	0.96618 0.13075 0.29481 -0.06000
C 	C 	0.96653 0.14133 0.23850 -0.16300
C 	C 	0.99032 0.16778 0.22157 0.34500
C 	C 	0.01557 0.18048 0.25870 -0.11200
C 	C 	0.01700 0.16764 0.31333 -0.15300
C 	C 	0.99146 0.14363 0.33199 0.32400
F 	F 	0.99230 0.13124 0.38507 -0.44600
H 	H 	0.94692 0.11200 0.30953 -0.01800
H 	H 	0.03481 0.19950 0.24436 0.07900
F 	F 	0.98932 0.18083 0.16893 -0.43800
C 	C 	0.82063 0.24188 0.02402 0.11200
C 	C 	0.80780 0.20683 0.02031 -0.06700
C 	C 	0.82942 0.17975 0.99666 0.01900
C 	C 	0.86387 0.18649 0.98287 0.14800
C 	C 	0.87683 0.22153 0.98730 -0.09900
C 	C 	0.85400 0.24920 0.00498 0.04600
O 	O 	0.80773 0.26668 0.06419 -0.20600
C 	C 	0.83653 0.28931 0.06784 0.10500
C 	C 	0.86408 0.27927 0.03269 -0.09200
O 	O 	0.88557 0.15713 0.98819 -0.19800
C 	C 	0.86159 0.13288 0.00991 0.08300
C 	C 	0.82791 0.14568 0.01260 -0.05200
H 	H 	0.78347 0.20016 0.04121 0.07900
H 	H 	0.90451 0.22647 0.98277 0.07700
H 	H 	0.89096 0.28656 0.04002 0.07100
H 	H 	0.80781 0.13551 0.04054 0.07000
C 	C 	0.59975 0.94143 0.48097 -0.01800
C 	C 	0.61272 0.97497 0.49886 -0.01200
C 	C 	0.59042 0.00452 0.50437 -0.04800
C 	C 	0.55498 0.00074 0.49224 0.01400
C 	C 	0.54178 0.96692 0.47664 -0.04400
C 	C 	0.56403 0.93743 0.47107 -0.01600
C 	C 	0.53230 0.03254 0.49107 0.00700
C 	C 	0.50226 0.03491 0.52572 -0.03800
C 	C 	0.47805 0.06224 0.51860 -0.03700
C 	C 	0.48372 0.08737 0.47682 0.00600
C 	C 	0.51458 0.08607 0.44419 -0.03700
C 	C 	0.53877 0.05878 0.45128 -0.03700
C 	C 	0.45586 0.11245 0.46302 0.01600
C 	C 	0.44895 0.14273 0.49799 -0.04700
C 	C 	0.42343 0.16727 0.48335 -0.01800
C 	C 	0.40461 0.16163 0.43361 -0.01900
C 	C 	0.41112 0.13084 0.39940 -0.01600
C 	C 	0.43664 0.10646 0.41400 -0.04600
H 	H 	0.64021 0.97841 0.50675 0.04700
H 	H 	0.60082 0.03048 0.51678 0.04800
H 	H 	0.51446 0.96371 0.46727 0.04600
H 	H 	0.55361 0.91158 0.45811 0.04300
H 	H 	0.49717 0.01496 0.55690 0.04200
H 	H 	0.45436 0.06314 0.54415 0.04300
H 	H 	0.51925 0.10550 0.41205 0.04500
H 	H 	0.56190 0.05724 0.42441 0.04500
H 	H 	0.46363 0.14749 0.53603 0.04600
H 	H 	0.41876 0.19092 0.51008 0.04400
H 	H 	0.39643 0.12582 0.36144 0.04700
H 	H 	0.44163 0.08296 0.38705 0.04800
C 	C 	0.49028 0.79597 0.78153 -0.01800
C 	C 	0.48170 0.82451 0.81938 -0.01700
C 	C 	0.45652 0.84946 0.80553 -0.04600
C 	C 	0.43965 0.84624 0.75374 0.01600
C 	C 	0.44760 0.81740 0.71634 -0.04600
C 	C 	0.47271 0.79229 0.73021 -0.01700
C 	C 	0.41488 0.87402 0.73776 0.00600
C 	C 	0.38404 0.87968 0.76947 -0.03700
C 	C 	0.36311 0.90933 0.75990 -0.03700
C 	C 	0.37287 0.93354 0.71852 0.00700
C 	C 	0.40275 0.92683 0.68481 -0.03700
C 	C 	0.42368 0.89718 0.69440 -0.03700
C 	C 	0.35395 0.96761 0.71462 0.01500
C 	C 	0.37046 0.99994 0.72947 -0.04100
C 	C 	0.35166 0.03193 0.73155 -0.02000
C 	C 	0.31614 0.03190 0.71881 -0.02100
C 	C 	0.29994 0.99973 0.70188 -0.01300
C 	C 	0.31877 0.96769 0.69993 -0.04600
H 	H 	0.49511 0.82788 0.85894 0.04500
H 	H 	0.45060 0.87172 0.83456 0.04700
H 	H 	0.43453 0.81461 0.67639 0.04700
H 	H 	0.47863 0.77014 0.70097 0.04700
H 	H 	0.37689 0.86176 0.80272 0.04400
H 	H 	0.34003 0.91421 0.78601 0.04500
H 	H 	0.41032 0.94521 0.65244 0.04300
H 	H 	0.44737 0.89293 0.66954 0.04400
H 	H 	0.39763 0.00014 0.74079 0.04200
H 	H 	0.36457 0.05665 0.74391 0.04200
H 	H 	0.27255 0.99936 0.69191 0.04600
H 	H 	0.30586 0.94287 0.68813 0.04800
C 	C 	0.63584 0.83859 0.36005 -0.01600
C 	C 	0.60208 0.82992 0.34249 -0.01600
C 	C 	0.59709 0.81215 0.29048 -0.04500
C 	C 	0.62577 0.80281 0.25550 0.01700
C 	C 	0.65959 0.81002 0.27409 -0.04400
C 	C 	0.66462 0.82779 0.32618 -0.01500
C 	C 	0.62022 0.78833 0.19766 0.00800
C 	C 	0.60241 0.75588 0.18898 -0.03700
C 	C 	0.59374 0.74420 0.13437 -0.03600
C 	C 	0.60280 0.76489 0.08802 0.00600
C 	C 	0.62162 0.79673 0.09659 -0.03400
C 	C 	0.63031 0.80837 0.15113 -0.03600
C 	C 	0.59062 0.75458 0.03105 0.02300
C 	C 	0.55484 0.75315 0.02046 -0.03900
C 	C 	0.54324 0.74828 0.96523 -0.02600
C 	C 	0.56731 0.74504 0.91995 -0.01900
C 	C 	0.60312 0.74451 0.93098 -0.01600
C 	C 	0.61469 0.74924 0.98627 -0.05500
H 	H 	0.57968 0.83760 0.36862 0.04400
H 	H 	0.57088 0.80661 0.27661 0.04600
H 	H 	0.68192 0.80266 0.24757 0.05100
H 	H 	0.69080 0.83424 0.33925 0.05300
H 	H 	0.59469 0.74010 0.22460 0.04400
H 	H 	0.57946 0.71945 0.12817 0.04300
H 	H 	0.62868 0.81293 0.06113 0.04900
H 	H 	0.64398 0.83349 0.15738 0.05000
H 	H 	0.53604 0.75699 0.05479 0.04600
H 	H 	0.51555 0.74798 0.95753 0.04400
H 	H 	0.62204 0.74185 0.89661 0.04700
H 	H 	0.64236 0.74984 0.99411 0.04800
C 	C 	0.89383 0.93034 0.25095 -0.08000
C 	C 	0.87463 0.93286 0.30197 -0.15600
C 	C 	0.84642 0.95674 0.30705 0.34300
C 	C 	0.84134 0.98182 0.26574 -0.10500
C 	C 	0.86402 0.98285 0.21879 -0.13600
C 	C 	0.88820 0.95496 0.20905 0.32800
F 	F 	0.90830 0.95358 0.16128 -0.43400
H 	H 	0.91455 0.91084 0.24518 0.02700
H 	H 	0.82138 0.00210 0.27220 0.09000
F 	F 	0.82514 0.95695 0.35346 -0.43800
C 	C 	0.99708 0.01760 0.34455 -0.12200
C 	C 	0.99598 0.99689 0.39280 -0.12600
C 	C 	0.01828 0.00549 0.43770 0.32700
C 	C 	0.04233 0.03350 0.43295 -0.09200
C 	C 	0.04445 0.05287 0.38333 -0.13400
C 	C 	0.02128 0.04518 0.33959 0.33200
F 	F 	0.02242 0.06430 0.29196 -0.49800
H 	H 	0.97945 0.01200 0.31051 0.05200
H 	H 	0.05996 0.03940 0.46712 0.09800
F 	F 	0.01733 0.98623 0.48516 -0.40900
C 	C 	0.74552 0.84571 0.56440 0.11400
C 	C 	0.77727 0.82730 0.56171 -0.07600
C 	C 	0.80656 0.84407 0.58525 0.01900
C 	C 	0.80566 0.87960 0.60301 0.11700
C 	C 	0.77423 0.89871 0.60260 -0.07900
C 	C 	0.74392 0.88020 0.58692 0.03400
O 	O 	0.71846 0.83692 0.52847 -0.20000
C 	C 	0.70073 0.86953 0.53111 0.10200
C 	C 	0.71566 0.89549 0.56556 -0.07600
O 	O 	0.83773 0.89665 0.59925 -0.17000
C 	C 	0.85768 0.86846 0.57560 0.06800
C 	C 	0.83942 0.83687 0.56848 -0.05600
H 	H 	0.77959 0.80186 0.53871 0.07400
H 	H 	0.77392 0.92744 0.61018 0.07900
H 	H 	0.71215 0.92404 0.56151 0.07200
H 	H 	0.84666 0.81552 0.53844 0.07200
C 	C 	0.85252 0.95774 0.73710 -0.10200
C 	C 	0.87111 0.92746 0.75259 -0.11900
C 	C 	0.90762 0.92914 0.75546 0.33500
C 	C 	0.92509 0.96129 0.74552 -0.08700
C 	C 	0.90628 0.99219 0.73363 -0.10700
C 	C 	0.86993 0.99006 0.72810 0.33000
F 	F 	0.85140 0.01946 0.71530 -0.47600
H 	H 	0.82441 0.95670 0.73454 0.04500
H 	H 	0.95309 0.96257 0.74973 0.08500
F 	F 	0.92605 0.89994 0.76961 -0.46300
C 	C 	0.74615 0.91569 0.89478 -0.10400
C 	C 	0.73885 0.90813 0.83775 -0.17300
C 	C 	0.72032 0.93335 0.80741 0.33100
C 	C 	0.71282 0.96699 0.83194 -0.12600
C 	C 	0.72374 0.97590 0.88667 -0.16100
C 	C 	0.73873 0.94948 0.91913 0.31700
F 	F 	0.74816 0.95722 0.97303 -0.45000
H 	H 	0.75862 0.89583 0.91969 0.01100
H 	H 	0.70031 0.98693 0.80716 0.07000
F 	F 	0.71075 0.92587 0.75350 -0.45100
C 	C 	0.70040 0.71343 0.66880 0.12000
C 	C 	0.67457 0.69283 0.69474 -0.08900
C 	C 	0.63955 0.70131 0.68630 0.02200
C 	C 	0.63034 0.73105 0.65699 0.11600
C 	C 	0.65620 0.75213 0.63210 -0.08400
C 	C 	0.69116 0.74185 0.63651 0.01600
O 	O 	0.73330 0.71674 0.69147 -0.18700
C 	C 	0.74230 0.75048 0.67253 0.05800
C 	C 	0.71771 0.76526 0.63878 -0.05800
O 	O 	0.59836 0.74553 0.67393 -0.20000
C 	C 	0.59014 0.72308 0.71807 0.10000
C 	C 	0.61412 0.69623 0.72491 -0.08600
H 	H 	0.68159 0.67346 0.72549 0.07100
H 	H 	0.64956 0.77776 0.61523 0.07600
H 	H 	0.71457 0.79379 0.63426 0.07000
H 	H 	0.61764 0.68249 0.76391 0.06400
C 	C 	0.89398 0.39469 0.15190 -0.02100
C 	C 	0.92880 0.38545 0.13989 -0.01700
C 	C 	0.95514 0.41087 0.14749 -0.04700
C 	C 	0.94680 0.44584 0.16656 0.01400
C 	C 	0.91174 0.45565 0.17474 -0.05000
C 	C 	0.88548 0.43014 0.16777 -0.01800
C 	C 	0.97471 0.47128 0.18230 0.00300
C 	C 	0.97498 0.48707 0.23683 -0.04000
C 	C 	0.00194 0.51010 0.25262 -0.03400
C 	C 	0.02914 0.51728 0.21431 0.00600
C 	C 	0.02856 0.50213 0.15937 -0.03700
C 	C 	0.00149 0.47913 0.14346 -0.03500
C 	C 	0.05909 0.53903 0.23290 0.01700
C 	C 	0.07897 0.52816 0.27824 -0.04700
C 	C 	0.10526 0.55023 0.29954 -0.01600
C 	C 	0.11213 0.58333 0.27549 -0.02000
C 	C 	0.09307 0.59366 0.22877 -0.01500
C 	C 	0.06661 0.57160 0.20761 -0.04700
H 	H 	0.93561 0.35818 0.12730 0.04600
H 	H 	0.98207 0.40303 0.14065 0.04700
H 	H 	0.90494 0.48283 0.18788 0.04400
H 	H 	0.85860 0.43770 0.17611 0.04100
H 	H 	0.95458 0.48107 0.26724 0.04300
H 	H 	0.00201 0.52193 0.29497 0.04400
H 	H 	0.04936 0.50765 0.12941 0.04200
H 	H 	0.00145 0.46725 0.10116 0.04000
H 	H 	0.07366 0.50283 0.29751 0.04700
H 	H 	0.12020 0.54167 0.33491 0.04300
H 	H 	0.09817 0.61912 0.20974 0.04700
H 	H 	0.05151 0.58015 0.17241 0.04900
C 	C 	0.81701 0.39814 0.89761 -0.02300
C 	C 	0.80973 0.41736 0.94846 -0.01100
C 	C 	0.83380 0.44210 0.96995 -0.06100
C 	C 	0.86536 0.44786 0.94086 0.02500
C 	C 	0.87292 0.42822 0.89063 -0.05200
C 	C 	0.84889 0.40353 0.86908 -0.01400
C 	C 	0.89024 0.47492 0.96235 -0.01100
C 	C 	0.90009 0.50361 0.92886 -0.02700
C 	C 	0.92533 0.52792 0.94756 -0.05400
C 	C 	0.94078 0.52390 0.00005 0.02200
C 	C 	0.93003 0.49605 0.03441 -0.04900
C 	C 	0.90503 0.47148 0.01554 -0.02100
C 	C 	0.96994 0.54725 0.01703 0.00700
C 	C 	0.96412 0.58369 0.02984 -0.04100
C 	C 	0.99232 0.60695 0.03710 -0.02200
C 	C 	0.02650 0.59398 0.03098 -0.01700
C 	C 	0.03224 0.55716 0.02190 -0.02100
C 	C 	0.00405 0.53387 0.01510 -0.04000
H 	H 	0.78522 0.41360 0.97083 0.04200
H 	H 	0.82773 0.45711 0.00878 0.05500
H 	H 	0.89740 0.43216 0.86823 0.04600
H 	H 	0.85510 0.38851 0.83032 0.04400
H 	H 	0.88854 0.50674 0.88803 0.04100
H 	H 	0.93341 0.54944 0.92080 0.04700
H 	H 	0.94131 0.49326 0.07535 0.04500
H 	H 	0.89758 0.44949 0.04177 0.04200
H 	H 	0.93784 0.59418 0.03215 0.04900
H 	H 	0.98761 0.63530 0.04452 0.04800
H 	H 	0.05853 0.54680 0.01799 0.04100
H 	H 	0.00877 0.50569 0.00600 0.04300
C 	C 	0.11703 0.64704 0.91275 -0.01600
C 	C 	0.12453 0.61565 0.88055 -0.01900
C 	C 	0.13643 0.61765 0.82464 -0.04600
C 	C 	0.14120 0.65105 0.80039 0.01600
C 	C 	0.13545 0.68246 0.83339 -0.04500
C 	C 	0.12341 0.68049 0.88931 -0.01800
C 	C 	0.14967 0.65304 0.73944 0.00700
C 	C 	0.17971 0.63625 0.71654 -0.03800
C 	C 	0.18573 0.63478 0.65811 -0.03800
C 	C 	0.16185 0.65022 0.62211 0.00700
C 	C 	0.13249 0.66811 0.64512 -0.03600
C 	C 	0.12639 0.66947 0.70350 -0.03600
C 	C 	0.16621 0.64544 0.56028 0.01600
C 	C 	0.16306 0.61128 0.53458 -0.04600
C 	C 	0.16406 0.60703 0.47576 -0.01700
C 	C 	0.16828 0.63693 0.44201 -0.01600
C 	C 	0.17260 0.67098 0.46780 -0.01600
C 	C 	0.17147 0.67522 0.52669 -0.04500
H 	H 	0.12030 0.58969 0.89837 0.04200
H 	H 	0.14095 0.59323 0.79967 0.04500
H 	H 	0.13944 0.70839 0.81529 0.04800
H 	H 	0.11783 0.70493 0.91362 0.04900
H 	H 	0.19801 0.62375 0.74390 0.04200
H 	H 	0.20858 0.62111 0.64076 0.04300
H 	H 	0.11389 0.68008 0.61769 0.04800
H 	H 	0.10309 0.68240 0.72066 0.04700
H 	H 	0.15906 0.58812 0.56015 0.04600
H 	H 	0.16111 0.58057 0.45642 0.04300
H 	H 	0.17582 0.69427 0.44229 0.05200
H 	H 	0.17408 0.70169 0.54616 0.04900
C 	C 	0.91022 0.99407 0.97238 -0.09500
C 	C 	0.90358 0.95727 0.97563 -0.11200
C 	C 	0.86981 0.94439 0.96561 0.33300
C 	C 	0.84369 0.96774 0.94901 -0.10100
C 	C 	0.85124 0.00398 0.94136 -0.13100
C 	C 	0.88476 0.01698 0.95240 0.34300
F 	F 	0.89338 0.05101 0.93980 -0.48300
H 	H 	0.93580 0.00456 0.98181 0.08700
H 	H 	0.81801 0.95738 0.93997 0.05700
F 	F 	0.86263 0.90906 0.97014 -0.52200
C 	C 	0.95060 0.82154 0.86508 -0.09800
C 	C 	0.95008 0.81959 0.92415 -0.13900
C 	C 	0.92136 0.80377 0.95129 0.33900
C 	C 	0.89171 0.79492 0.92070 -0.09700
C 	C 	0.89067 0.80129 0.86281 -0.14200
C 	C 	0.92099 0.81270 0.83452 0.34600
F 	F 	0.92113 0.81737 0.77801 -0.42000
H 	H 	0.97327 0.83184 0.84313 0.05500
H 	H 	0.86899 0.78455 0.94244 0.08500
F 	F 	0.92173 0.79792 0.00744 -0.42800
C 	C 	0.99507 0.99148 0.90439 -0.12000
C 	C 	0.02720 0.98730 0.92998 -0.15900
C 	C 	0.05558 0.00844 0.91358 0.33700
C 	C 	0.05194 0.03242 0.86993 -0.08000
C 	C 	0.01971 0.03592 0.84375 -0.17300
C 	C 	0.99104 0.01625 0.86276 0.31200
F 	F 	0.95974 0.01937 0.83832 -0.54500
H 	H 	0.97370 0.97404 0.91448 0.02100
H 	H 	0.07426 0.04761 0.85564 0.09000
F 	F 	0.08699 0.00449 0.93778 -0.44000
C 	C 	0.06697 0.80294 0.17972 0.14900
C 	C 	0.05516 0.76750 0.18185 -0.07800
C 	C 	0.07786 0.73982 0.16376 0.03000
C 	C 	0.10960 0.74711 0.13836 0.12000
C 	C 	0.12102 0.78258 0.13481 -0.08300
C 	C 	0.09996 0.81005 0.15872 0.03800
O 	O 	0.04386 0.83127 0.17578 -0.18400
C 	C 	0.06510 0.85512 0.14684 0.08300
C 	C 	0.09891 0.84322 0.13876 -0.06500
O 	O 	0.12103 0.72056 0.09991 -0.20600
C 	C 	0.09294 0.69702 0.10374 0.10000
C 	C 	0.06725 0.70812 0.14189 -0.08700
H 	H 	0.02812 0.76195 0.19201 0.07700
H 	H 	0.14365 0.78880 0.10900 0.08500
H 	H 	0.11645 0.85262 0.10608 0.07600
H 	H 	0.04027 0.69976 0.13989 0.06800
C 	C 	0.00313 0.96733 0.20071 -0.08400
C 	C 	0.00169 0.00211 0.18016 -0.11900
C 	C 	0.03281 0.02062 0.16933 0.34700
C 	C 	0.06480 0.00549 0.18282 -0.08200
C 	C 	0.06595 0.97171 0.20678 -0.12800
C 	C 	0.03506 0.95236 0.21453 0.32700
F 	F 	0.03576 0.91996 0.23863 -0.50400
H 	H 	0.97934 0.95263 0.20870 0.07800
H 	H 	0.08856 0.02062 0.17676 0.09100
F 	F 	0.03193 0.05422 0.14951 -0.44500
C 	C 	0.08442 0.89228 0.40216 -0.08200
C 	C 	0.09036 0.86821 0.35616 -0.16800
C 	C 	0.06661 0.84009 0.34636 0.34900
C 	C 	0.03539 0.83898 0.37743 -0.12300
C 	C 	0.02799 0.86512 0.41969 -0.15000
C 	C 	0.05332 0.89084 0.43369 0.31500
F 	F 	0.04715 0.91548 0.47604 -0.42400
H 	H 	0.10354 0.91248 0.41295 -0.01000
H 	H 	0.01640 0.81841 0.36743 0.07700
F 	F 	0.07369 0.81389 0.30683 -0.44500
C 	C 	0.20353 0.06571 0.34242 -0.09200
C 	C 	0.18135 0.08605 0.30979 -0.14500
C 	C 	0.17169 0.07246 0.25620 0.32600
C 	C 	0.17919 0.03692 0.24019 -0.09000
C 	C 	0.19700 0.01506 0.27692 -0.15300
C 	C 	0.21122 0.03030 0.32620 0.32500
F 	F 	0.23074 0.01015 0.36006 -0.45400
H 	H 	0.21305 0.07660 0.38211 0.09500
H 	H 	0.16927 0.02580 0.20091 0.09600
F 	F 	0.15412 0.09315 0.22050 -0.52400
C 	C 	0.24195 0.71059 0.22865 0.11400
C 	C 	0.25841 0.74374 0.23670 -0.08300
C 	C 	0.25225 0.77058 0.19816 0.01300
C 	C 	0.22773 0.76606 0.15669 0.12200
C 	C 	0.21073 0.73311 0.14939 -0.09200
C 	C 	0.21969 0.70507 0.18416 0.02700
O 	O 	0.23575 0.68815 0.27328 -0.20000
C 	C 	0.20729 0.66927 0.25200 0.10200
C 	C 	0.19767 0.67895 0.19894 -0.08600
O 	O 	0.21224 0.79779 0.14143 -0.18800
C 	C 	0.22841 0.82149 0.17933 0.06000
C 	C 	0.25292 0.80565 0.21209 -0.06000
H 	H 	0.27265 0.74960 0.27488 0.07100
H 	H 	0.18912 0.73043 0.12101 0.08200
H 	H 	0.17177 0.67541 0.18231 0.07100
H 	H 	0.26132 0.81651 0.25255 0.06800
