data_crystal

_cell_length_a 38.16071
_cell_length_b 38.22507
_cell_length_c 38.28330
_cell_angle_alpha 90.00132
_cell_angle_beta  89.99175
_cell_angle_gamma 89.99469

_symmetry_space_group_name_	'P 1'
_symmetry_space_group_name_H-M	'P 1'

loop_
_symmetry_equiv_pos_as_xyz
  x,y,z

loop_
_atom_site_label
_atom_site_type_symbol
_atom_site_fract_x
_atom_site_fract_y
_atom_site_fract_z
_atom_site_charge
Co	Co	0.13709 0.82958 0.67271 1.18600
O 	O 	0.11532 0.78045 0.68280 -0.34400
Co	Co	0.14559 0.91253 0.64687 1.18700
O 	O 	0.10504 0.87222 0.66779 -0.43900
O 	O 	0.16991 0.88069 0.61457 -0.40100
O 	O 	0.12165 0.81561 0.72486 -0.30700
C 	C 	0.15426 0.85339 0.60086 0.31100
O 	O 	0.09416 0.90575 0.62468 -0.32500
C 	C 	0.15219 0.97848 0.65955 0.26200
C 	C 	0.19540 0.86700 0.68767 0.28000
O 	O 	0.16800 0.96101 0.63550 -0.33500
O 	O 	0.13161 0.95821 0.67714 -0.30500
O 	O 	0.19176 0.83327 0.68503 -0.32200
O 	O 	0.16519 0.88236 0.68631 -0.43300
O 	O 	0.14408 0.82674 0.62077 -0.50600
C 	C 	0.11070 0.78498 0.71581 0.26700
C 	C 	0.08351 0.87894 0.64271 0.27300
H 	H 	0.13774 0.80363 0.60945 0.19000
Co	Co	0.33781 0.86753 0.83511 1.18700
O 	O 	0.32848 0.88940 0.78596 -0.34400
Co	Co	0.36239 0.85870 0.91819 1.18800
O 	O 	0.34168 0.89935 0.87794 -0.43700
O 	O 	0.39513 0.83451 0.88672 -0.40100
O 	O 	0.28568 0.88269 0.82025 -0.30600
C 	C 	0.40953 0.85024 0.85989 0.31300
O 	O 	0.38445 0.91021 0.91203 -0.32500
C 	C 	0.34913 0.85149 0.98385 0.26400
C 	C 	0.32236 0.80907 0.87197 0.28100
O 	O 	0.37337 0.83588 0.96643 -0.33500
O 	O 	0.33159 0.87218 0.96365 -0.30400
O 	O 	0.32564 0.81283 0.83836 -0.32100
O 	O 	0.32335 0.83917 0.88745 -0.43200
O 	O 	0.39009 0.86125 0.83324 -0.50700
C 	C 	0.29526 0.89380 0.78988 0.26800
C 	C 	0.36653 0.92103 0.88522 0.27300
H 	H 	0.40191 0.86836 0.81062 0.19000
Co	Co	0.17425 0.66701 0.87422 1.18700
O 	O 	0.22393 0.67590 0.89542 -0.34400
Co	Co	0.09059 0.64306 0.86586 1.18700
O 	O 	0.13158 0.66263 0.90639 -0.43700
O 	O 	0.12160 0.61009 0.84125 -0.40000
O 	O 	0.18952 0.71877 0.88989 -0.30600
C 	C 	0.14877 0.59571 0.85662 0.31100
O 	O 	0.09713 0.61999 0.91678 -0.32400
C 	C 	0.02487 0.65785 0.85963 0.26400
C 	C 	0.13685 0.68331 0.81644 0.28100
O 	O 	0.04181 0.63412 0.84277 -0.33500
O 	O 	0.04557 0.67380 0.88108 -0.30400
O 	O 	0.17058 0.67993 0.81986 -0.32100
O 	O 	0.12157 0.68207 0.84662 -0.43200
O 	O 	0.17597 0.61504 0.86660 -0.50600
C 	C 	0.22020 0.70903 0.90023 0.26800
C 	C 	0.12433 0.63741 0.92761 0.27300
H 	H 	0.19898 0.60319 0.87251 0.19000
Co	Co	0.79096 0.86524 0.67297 1.18700
O 	O 	0.74187 0.88711 0.68328 -0.34400
Co	Co	0.87381 0.85667 0.64678 1.18800
O 	O 	0.83363 0.89724 0.66789 -0.43800
O 	O 	0.84179 0.83231 0.61468 -0.40000
O 	O 	0.77729 0.88072 0.72516 -0.30600
C 	C 	0.81440 0.84788 0.60101 0.31200
O 	O 	0.86693 0.90800 0.62455 -0.32400
C 	C 	0.93994 0.85020 0.65904 0.26400
C 	C 	0.82839 0.80695 0.68787 0.28000
O 	O 	0.92231 0.83431 0.63517 -0.33400
O 	O 	0.91969 0.87070 0.67675 -0.30400
O 	O 	0.79461 0.81065 0.68530 -0.32100
O 	O 	0.84384 0.83709 0.68642 -0.43200
O 	O 	0.78789 0.85834 0.62102 -0.50700
C 	C 	0.74659 0.89174 0.71626 0.26800
C 	C 	0.84026 0.91873 0.64277 0.27300
H 	H 	0.76475 0.86487 0.60978 0.19000
Co	Co	0.62820 0.82811 0.87506 1.18700
O 	O 	0.63670 0.77839 0.89622 -0.34200
Co	Co	0.60504 0.91188 0.86604 1.18800
O 	O 	0.62341 0.87082 0.90711 -0.43600
O 	O 	0.57212 0.88110 0.84103 -0.39900
O 	O 	0.67977 0.81267 0.89142 -0.30700
C 	C 	0.55728 0.85406 0.85617 0.31000
O 	O 	0.58107 0.90599 0.91653 -0.32400
C 	C 	0.62053 0.97735 0.85985 0.26400
C 	C 	0.64547 0.86516 0.81743 0.28100
O 	O 	0.59691 0.96058 0.84264 -0.33400
O 	O 	0.63603 0.95657 0.88155 -0.30400
O 	O 	0.64195 0.83152 0.82087 -0.32100
O 	O 	0.64404 0.88051 0.84753 -0.43400
O 	O 	0.57629 0.82676 0.86650 -0.50500
C 	C 	0.66987 0.78197 0.90141 0.26800
C 	C 	0.59776 0.87852 0.92775 0.27200
H 	H 	0.56419 0.80385 0.87215 0.19000
Co	Co	0.82864 0.66436 0.83498 1.18700
O 	O 	0.85048 0.67368 0.78578 -0.34200
Co	Co	0.81950 0.63984 0.91816 1.18800
O 	O 	0.86055 0.65983 0.87780 -0.43600
O 	O 	0.79537 0.60704 0.88669 -0.40000
O 	O 	0.84437 0.71630 0.82031 -0.30600
C 	C 	0.81118 0.59282 0.85978 0.31100
O 	O 	0.87085 0.61736 0.91239 -0.32500
C 	C 	0.81242 0.65314 0.98386 0.26400
C 	C 	0.77020 0.68027 0.87188 0.28000
O 	O 	0.79652 0.62912 0.96642 -0.33500
O 	O 	0.83322 0.67051 0.96361 -0.30400
O 	O 	0.77396 0.67714 0.83825 -0.32100
O 	O 	0.80034 0.67897 0.88735 -0.43300
O 	O 	0.82144 0.61231 0.83288 -0.50600
C 	C 	0.85523 0.70679 0.78982 0.26800
C 	C 	0.88186 0.63467 0.88528 0.27200
H 	H 	0.82783 0.60058 0.81000 0.19000
Co	Co	0.17124 0.86394 0.38200 1.18700
O 	O 	0.22056 0.88549 0.37213 -0.34400
Co	Co	0.08817 0.85589 0.40777 1.18700
O 	O 	0.12874 0.89622 0.38689 -0.43800
O 	O 	0.11988 0.83139 0.44008 -0.40000
O 	O 	0.18549 0.87933 0.32993 -0.30600
C 	C 	0.14731 0.84683 0.45383 0.31200
O 	O 	0.09525 0.90716 0.43006 -0.32400
C 	C 	0.02200 0.84981 0.39534 0.26400
C 	C 	0.13355 0.80588 0.36694 0.28000
O 	O 	0.03951 0.83380 0.41923 -0.33400
O 	O 	0.04241 0.87020 0.37768 -0.30400
O 	O 	0.16735 0.80939 0.36965 -0.32100
O 	O 	0.11825 0.83611 0.36828 -0.43200
O 	O 	0.17403 0.85692 0.43393 -0.50700
C 	C 	0.21618 0.89014 0.33912 0.26800
C 	C 	0.12211 0.91771 0.41201 0.27300
H 	H 	0.19721 0.86312 0.44525 0.19000
Co	Co	0.33480 0.82676 0.18099 1.18700
O 	O 	0.32586 0.77716 0.15977 -0.34300
Co	Co	0.35845 0.91038 0.18958 1.18800
O 	O 	0.33892 0.86951 0.14897 -0.43700
O 	O 	0.39147 0.87941 0.21412 -0.40000
O 	O 	0.28292 0.81149 0.16546 -0.30600
C 	C 	0.40612 0.85252 0.19860 0.31100
O 	O 	0.38151 0.90407 0.13863 -0.32400
C 	C 	0.34349 0.97594 0.19601 0.26400
C 	C 	0.31840 0.86394 0.23887 0.28100
O 	O 	0.36729 0.95903 0.21282 -0.33500
O 	O 	0.32752 0.95529 0.17454 -0.30400
O 	O 	0.32197 0.83029 0.23540 -0.32100
O 	O 	0.31955 0.87924 0.20872 -0.43200
O 	O 	0.38696 0.82534 0.18827 -0.50600
C 	C 	0.29265 0.78087 0.15506 0.26700
C 	C 	0.36411 0.87692 0.12773 0.27300
H 	H 	0.39902 0.80258 0.18193 0.19000
Co	Co	0.13392 0.66297 0.22029 1.18700
O 	O 	0.11189 0.67235 0.26941 -0.34200
Co	Co	0.14329 0.63841 0.13713 1.18800
O 	O 	0.10215 0.65831 0.17741 -0.43700
O 	O 	0.16744 0.60563 0.16864 -0.40000
O 	O 	0.11800 0.71490 0.23479 -0.30600
C 	C 	0.15167 0.59144 0.19561 0.31100
O 	O 	0.09195 0.61585 0.14279 -0.32400
C 	C 	0.15052 0.65193 0.07148 0.26400
C 	C 	0.19242 0.67890 0.18355 0.28000
O 	O 	0.16636 0.62781 0.08885 -0.33400
O 	O 	0.12963 0.66919 0.09173 -0.30400
O 	O 	0.18857 0.67584 0.21717 -0.32100
O 	O 	0.16232 0.67755 0.16799 -0.43300
O 	O 	0.14132 0.61097 0.22247 -0.50600
C 	C 	0.10705 0.70544 0.26526 0.26800
C 	C 	0.08092 0.63310 0.16994 0.27200
H 	H 	0.13501 0.59928 0.24538 0.19000
Co	Co	0.78889 0.66668 0.18061 1.18700
O 	O 	0.73948 0.67616 0.15901 -0.34300
Co	Co	0.87236 0.64235 0.18953 1.18700
O 	O 	0.83181 0.66239 0.14881 -0.43700
O 	O 	0.84098 0.60938 0.21366 -0.40000
O 	O 	0.77423 0.71867 0.16517 -0.30600
C 	C 	0.81396 0.59512 0.19793 0.31100
O 	O 	0.86614 0.61967 0.13839 -0.32400
C 	C 	0.93813 0.65675 0.19620 0.26400
C 	C 	0.82585 0.68258 0.23883 0.28100
O 	O 	0.92096 0.63301 0.21283 -0.33500
O 	O 	0.91759 0.67300 0.17482 -0.30400
O 	O 	0.79215 0.67917 0.23509 -0.32100
O 	O 	0.84138 0.68139 0.20877 -0.43200
O 	O 	0.78695 0.61459 0.18764 -0.50600
C 	C 	0.74357 0.70930 0.15445 0.26800
C 	C 	0.83912 0.63730 0.12747 0.27300
H 	H 	0.76405 0.60282 0.18120 0.19000
Co	Co	0.82423 0.83020 0.38206 1.18700
O 	O 	0.84553 0.78083 0.37207 -0.34400
Co	Co	0.81671 0.91322 0.40786 1.18700
O 	O 	0.85678 0.87248 0.38680 -0.43800
O 	O 	0.79209 0.88168 0.44023 -0.40000
O 	O 	0.83938 0.81590 0.32989 -0.30600
C 	C 	0.80743 0.85423 0.45396 0.31200
O 	O 	0.86812 0.90585 0.42992 -0.32400
C 	C 	0.81096 0.97931 0.39544 0.26300
C 	C 	0.76621 0.86816 0.36730 0.28000
O 	O 	0.79494 0.96195 0.41943 -0.33400
O 	O 	0.83118 0.95882 0.37769 -0.30400
O 	O 	0.76955 0.83440 0.36996 -0.32100
O 	O 	0.79658 0.88327 0.36848 -0.43100
O 	O 	0.81746 0.82752 0.43405 -0.50600
C 	C 	0.85015 0.78523 0.33905 0.26700
C 	C 	0.87847 0.87898 0.41181 0.27300
H 	H 	0.82370 0.80438 0.44539 0.19000
Co	Co	0.62492 0.86803 0.21957 1.18700
O 	O 	0.63313 0.88989 0.26896 -0.34200
Co	Co	0.60211 0.85884 0.13583 1.18800
O 	O 	0.62053 0.89989 0.17677 -0.43700
O 	O 	0.56870 0.83423 0.16642 -0.39900
O 	O 	0.67641 0.88467 0.23500 -0.30700
C 	C 	0.55395 0.84959 0.19339 0.30900
O 	O 	0.57859 0.90972 0.14136 -0.32400
C 	C 	0.61817 0.85233 0.07062 0.26400
C 	C 	0.64218 0.81008 0.18286 0.28100
O 	O 	0.59422 0.83536 0.08718 -0.33400
O 	O 	0.63365 0.87397 0.09146 -0.30400
O 	O 	0.63867 0.81369 0.21645 -0.32100
O 	O 	0.64086 0.84018 0.16744 -0.43300
O 	O 	0.57299 0.85958 0.22077 -0.50500
C 	C 	0.66626 0.89526 0.26538 0.26800
C 	C 	0.59517 0.92081 0.16892 0.27200
H 	H 	0.56087 0.86511 0.24367 0.19000
Co	Co	0.82829 0.21134 0.67176 1.18700
O 	O 	0.85010 0.26049 0.68188 -0.34100
Co	Co	0.81942 0.12831 0.64639 1.18700
O 	O 	0.86030 0.16861 0.66684 -0.43700
O 	O 	0.79526 0.16009 0.61385 -0.40000
O 	O 	0.84385 0.22524 0.72388 -0.30700
C 	C 	0.81095 0.18729 0.59996 0.31100
O 	O 	0.87084 0.13443 0.62413 -0.32400
C 	C 	0.81257 0.06237 0.65911 0.26400
C 	C 	0.76983 0.17420 0.68713 0.28000
O 	O 	0.79671 0.07994 0.63519 -0.33400
O 	O 	0.83322 0.08260 0.67669 -0.30400
O 	O 	0.77360 0.20790 0.68422 -0.32100
O 	O 	0.80000 0.15872 0.68573 -0.43200
O 	O 	0.82131 0.21397 0.61976 -0.50600
C 	C 	0.85477 0.25590 0.71489 0.26800
C 	C 	0.88166 0.16149 0.64167 0.27200
H 	H 	0.82778 0.23700 0.60833 0.19000
Co	Co	0.79114 0.37429 0.87365 1.18700
O 	O 	0.74162 0.36544 0.89529 -0.34100
Co	Co	0.87484 0.39805 0.86468 1.18700
O 	O 	0.83380 0.37952 0.90568 -0.43700
O 	O 	0.84385 0.43086 0.83977 -0.39900
O 	O 	0.77641 0.32277 0.89050 -0.30700
C 	C 	0.81659 0.44532 0.85496 0.31000
O 	O 	0.86872 0.42197 0.91521 -0.32400
C 	C 	0.94055 0.38301 0.85894 0.26400
C 	C 	0.82832 0.35715 0.81599 0.28100
O 	O 	0.92372 0.40647 0.84159 -0.33400
O 	O 	0.91966 0.36734 0.88041 -0.30400
O 	O 	0.79460 0.36035 0.81953 -0.32100
O 	O 	0.84374 0.35880 0.84609 -0.43300
O 	O 	0.78927 0.42605 0.86482 -0.50500
C 	C 	0.74570 0.33244 0.90082 0.26800
C 	C 	0.84121 0.40521 0.92629 0.27200
H 	H 	0.76612 0.43790 0.87013 0.19000
Co	Co	0.62813 0.17339 0.83562 1.18700
O 	O 	0.63670 0.15218 0.78598 -0.34100
Co	Co	0.60492 0.18203 0.91926 1.18800
O 	O 	0.62364 0.14115 0.87818 -0.43600
O 	O 	0.57196 0.20710 0.88860 -0.39900
O 	O 	0.67980 0.15726 0.82017 -0.30700
C 	C 	0.55708 0.19200 0.86160 0.31000
O 	O 	0.58131 0.13130 0.91318 -0.32500
C 	C 	0.62014 0.18809 0.98469 0.26400
C 	C 	0.64500 0.23115 0.87277 0.28100
O 	O 	0.59650 0.20526 0.96792 -0.33400
O 	O 	0.63586 0.16652 0.96394 -0.30400
O 	O 	0.64153 0.22776 0.83916 -0.32100
O 	O 	0.64382 0.20095 0.88803 -0.43300
O 	O 	0.57608 0.18143 0.83441 -0.50500
C 	C 	0.66987 0.14703 0.78960 0.26800
C 	C 	0.59818 0.12022 0.88579 0.27200
H 	H 	0.56394 0.17543 0.81164 0.19000
Co	Co	0.79094 0.17674 0.38118 1.18700
O 	O 	0.74128 0.15564 0.37167 -0.34300
Co	Co	0.87445 0.18432 0.40579 1.18700
O 	O 	0.83327 0.14419 0.38579 -0.43800
O 	O 	0.84341 0.20917 0.43854 -0.40000
O 	O 	0.77626 0.16117 0.32927 -0.30600
C 	C 	0.81600 0.19400 0.45269 0.31000
O 	O 	0.86720 0.13330 0.42862 -0.32400
C 	C 	0.94040 0.18962 0.39163 0.26400
C 	C 	0.82883 0.23445 0.36542 0.28000
O 	O 	0.92350 0.20669 0.41523 -0.33400
O 	O 	0.91948 0.16860 0.37537 -0.30400
O 	O 	0.79506 0.23119 0.36855 -0.32200
O 	O 	0.84394 0.20411 0.36664 -0.43200
O 	O 	0.78890 0.18411 0.43315 -0.50500
C 	C 	0.74552 0.15071 0.33865 0.26700
C 	C 	0.84007 0.12278 0.41095 0.27300
H 	H 	0.76580 0.17819 0.44481 0.19000
Co	Co	0.82690 0.37639 0.21781 1.18700
O 	O 	0.84859 0.36766 0.26722 -0.34100
Co	Co	0.81840 0.39993 0.13418 1.18700
O 	O 	0.85914 0.38114 0.17530 -0.43700
O 	O 	0.79369 0.43317 0.16486 -0.39800
O 	O 	0.84345 0.32480 0.23279 -0.30700
C 	C 	0.80898 0.44755 0.19206 0.30900
O 	O 	0.86936 0.42327 0.14033 -0.32400
C 	C 	0.81265 0.38460 0.06873 0.26400
C 	C 	0.76904 0.35962 0.18059 0.28000
O 	O 	0.79548 0.40837 0.08532 -0.33400
O 	O 	0.83397 0.36882 0.08969 -0.30400
O 	O 	0.77249 0.36284 0.21423 -0.32100
O 	O 	0.79931 0.36100 0.16534 -0.43200
O 	O 	0.81848 0.42826 0.21942 -0.50500
C 	C 	0.85402 0.33463 0.26327 0.26800
C 	C 	0.88016 0.40652 0.16787 0.27200
H 	H 	0.82376 0.44014 0.24249 0.19000
Co	Co	0.62651 0.21240 0.17973 1.18700
O 	O 	0.63529 0.26181 0.15793 -0.34100
Co	Co	0.60340 0.12873 0.18914 1.18800
O 	O 	0.62226 0.16945 0.14804 -0.43700
O 	O 	0.57019 0.15966 0.21357 -0.39900
O 	O 	0.67825 0.22750 0.16361 -0.30700
C 	C 	0.55536 0.18648 0.19803 0.31000
O 	O 	0.58013 0.13420 0.13822 -0.32400
C 	C 	0.61863 0.06324 0.19581 0.26400
C 	C 	0.64337 0.17589 0.23790 0.28100
O 	O 	0.59488 0.08018 0.21268 -0.33500
O 	O 	0.63452 0.08390 0.17428 -0.30400
O 	O 	0.63966 0.20948 0.23410 -0.32100
O 	O 	0.64220 0.16026 0.20790 -0.43200
O 	O 	0.57439 0.21366 0.18741 -0.50500
C 	C 	0.66847 0.25799 0.15294 0.26800
C 	C 	0.59696 0.16161 0.12708 0.27200
H 	H 	0.56224 0.23638 0.18110 0.19000
Co	Co	0.13611 0.21021 0.38456 1.18700
O 	O 	0.11415 0.25937 0.37487 -0.34200
Co	Co	0.14483 0.12703 0.40963 1.18700
O 	O 	0.10404 0.16758 0.38954 -0.43700
O 	O 	0.16909 0.15857 0.44233 -0.39900
O 	O 	0.12012 0.22434 0.33263 -0.30700
C 	C 	0.15351 0.18586 0.45621 0.31000
O 	O 	0.09348 0.13324 0.43209 -0.32400
C 	C 	0.15131 0.06113 0.39649 0.26400
C 	C 	0.19441 0.17298 0.36887 0.28000
O 	O 	0.16733 0.07847 0.42049 -0.33400
O 	O 	0.13073 0.08157 0.37909 -0.30400
O 	O 	0.19072 0.20669 0.37171 -0.32100
O 	O 	0.16421 0.15756 0.37033 -0.43200
O 	O 	0.14360 0.21274 0.43646 -0.50600
C 	C 	0.10915 0.25490 0.34190 0.26800
C 	C 	0.08276 0.16047 0.41476 0.27300
H 	H 	0.13762 0.23588 0.44792 0.19000
Co	Co	0.17183 0.37252 0.18344 1.18700
O 	O 	0.22144 0.36321 0.16223 -0.34300
Co	Co	0.08835 0.39706 0.19140 1.18700
O 	O 	0.12940 0.37722 0.15110 -0.43800
O 	O 	0.11945 0.42968 0.21632 -0.40000
O 	O 	0.18663 0.32064 0.16770 -0.30600
C 	C 	0.14677 0.44397 0.20115 0.31100
O 	O 	0.09543 0.42018 0.14055 -0.32400
C 	C 	0.02241 0.38296 0.19686 0.26400
C 	C 	0.13414 0.35651 0.24111 0.28000
O 	O 	0.03941 0.40646 0.21398 -0.33400
O 	O 	0.04323 0.36673 0.17573 -0.30400
O 	O 	0.16790 0.35966 0.23777 -0.32200
O 	O 	0.11893 0.35779 0.21088 -0.43200
O 	O 	0.17384 0.42451 0.19100 -0.50600
C 	C 	0.21736 0.33013 0.15729 0.26700
C 	C 	0.12253 0.40253 0.12987 0.27300
H 	H 	0.19688 0.43625 0.18500 0.19000
Co	Co	0.33638 0.17154 0.22091 1.18700
O 	O 	0.32776 0.15004 0.27043 -0.34100
Co	Co	0.35935 0.18081 0.13723 1.18800
O 	O 	0.34068 0.13967 0.17805 -0.43600
O 	O 	0.39257 0.20538 0.16802 -0.39900
O 	O 	0.28468 0.15543 0.23628 -0.30700
C 	C 	0.40743 0.18990 0.19481 0.31000
O 	O 	0.38277 0.12993 0.14274 -0.32500
C 	C 	0.34379 0.18762 0.07193 0.26400
C 	C 	0.31936 0.22959 0.18422 0.28100
O 	O 	0.36760 0.20451 0.08875 -0.33500
O 	O 	0.32814 0.16586 0.09254 -0.30400
O 	O 	0.32305 0.22596 0.21778 -0.32100
O 	O 	0.32059 0.19949 0.16877 -0.43300
O 	O 	0.38846 0.17942 0.22206 -0.50500
C 	C 	0.29456 0.14503 0.26680 0.26800
C 	C 	0.36605 0.11874 0.17017 0.27200
H 	H 	0.40065 0.17329 0.24477 0.19000
Co	Co	0.13625 0.37669 0.83755 1.18700
O 	O 	0.11445 0.36729 0.78834 -0.34200
Co	Co	0.14493 0.40126 0.92079 1.18800
O 	O 	0.10416 0.38139 0.88016 -0.43700
O 	O 	0.16929 0.43408 0.88947 -0.40000
O 	O 	0.12036 0.32476 0.82304 -0.30700
C 	C 	0.15370 0.44823 0.86237 0.31100
O 	O 	0.09363 0.42384 0.91468 -0.32400
C 	C 	0.15140 0.38778 0.98651 0.26300
C 	C 	0.19449 0.36081 0.87469 0.28000
O 	O 	0.16745 0.41188 0.96931 -0.33400
O 	O 	0.13080 0.37047 0.96602 -0.30400
O 	O 	0.19086 0.36385 0.84104 -0.32100
O 	O 	0.16428 0.36212 0.89006 -0.43200
O 	O 	0.14368 0.42869 0.83541 -0.50600
C 	C 	0.10952 0.33422 0.79253 0.26800
C 	C 	0.08289 0.40662 0.88741 0.27200
H 	H 	0.13760 0.44037 0.81242 0.19000
Co	Co	0.33772 0.21387 0.87632 1.18700
O 	O 	0.32833 0.26314 0.89814 -0.34200
Co	Co	0.36195 0.13062 0.86676 1.18800
O 	O 	0.34194 0.17082 0.90792 -0.43600
O 	O 	0.39466 0.16220 0.84260 -0.40100
O 	O 	0.28565 0.22862 0.89177 -0.30700
C 	C 	0.40926 0.18895 0.85835 0.31200
O 	O 	0.38449 0.13612 0.91798 -0.32500
C 	C 	0.34879 0.06481 0.85942 0.26400
C 	C 	0.32174 0.17736 0.81782 0.28100
O 	O 	0.37273 0.08244 0.84360 -0.33500
O 	O 	0.33133 0.08496 0.88025 -0.30400
O 	O 	0.32521 0.21098 0.82177 -0.32100
O 	O 	0.32286 0.16165 0.84777 -0.43200
O 	O 	0.38996 0.21566 0.86960 -0.50600
C 	C 	0.29511 0.25915 0.90263 0.26800
C 	C 	0.36709 0.16315 0.92915 0.27200
H 	H 	0.40189 0.23826 0.87670 0.19000
Co	Co	0.17387 0.17631 0.67487 1.18700
O 	O 	0.22366 0.15550 0.68424 -0.34300
Co	Co	0.09025 0.18380 0.65039 1.18700
O 	O 	0.13155 0.14367 0.67024 -0.43700
O 	O 	0.12123 0.20862 0.61757 -0.39900
O 	O 	0.18879 0.16082 0.72673 -0.30600
C 	C 	0.14862 0.19340 0.60344 0.31100
O 	O 	0.09748 0.13285 0.62746 -0.32400
C 	C 	0.02434 0.18923 0.66470 0.26400
C 	C 	0.13581 0.23388 0.69074 0.28000
O 	O 	0.04122 0.20629 0.64108 -0.33400
O 	O 	0.04523 0.16808 0.68084 -0.30400
O 	O 	0.16959 0.23074 0.68759 -0.32100
O 	O 	0.12081 0.20351 0.68949 -0.43200
O 	O 	0.17585 0.18382 0.62293 -0.50600
C 	C 	0.21962 0.15063 0.71729 0.26700
C 	C 	0.12470 0.12233 0.64502 0.27300
H 	H 	0.19898 0.17810 0.61125 0.19000
C 	C 	0.24934 0.15171 0.74143 0.06300
N 	N 	0.27869 0.16984 0.73283 -0.05100
N 	N 	0.30323 0.17612 0.75679 -0.05100
C 	C 	0.29949 0.16375 0.78980 0.05000
N 	N 	0.27102 0.14400 0.79785 -0.04800
N 	N 	0.24611 0.13838 0.77410 -0.04900
C 	C 	0.10974 0.30999 0.76294 0.06300
N 	N 	0.09782 0.27682 0.76699 -0.04800
N 	N 	0.10323 0.25305 0.74209 -0.04700
C 	C 	0.12137 0.26160 0.71279 0.05000
N 	N 	0.13208 0.29513 0.70817 -0.05100
N 	N 	0.12600 0.31909 0.73273 -0.05100
C 	C 	0.27102 0.28893 0.90164 0.06300
N 	N 	0.27981 0.31824 0.88362 -0.05100
N 	N 	0.25577 0.34266 0.87699 -0.05100
C 	C 	0.22249 0.33882 0.88885 0.05000
N 	N 	0.21426 0.31044 0.90855 -0.04800
N 	N 	0.23808 0.28565 0.91453 -0.04900
C 	C 	0.34730 0.18088 0.03449 0.06600
N 	N 	0.35500 0.14819 0.02299 -0.04800
N 	N 	0.36287 0.14275 0.98950 -0.04400
C 	C 	0.36321 0.16984 0.96658 0.05200
N 	N 	0.35516 0.20247 0.97802 -0.06300
N 	N 	0.34800 0.20802 0.01165 -0.05300
C 	C 	0.14400 0.39158 0.02382 0.06500
N 	N 	0.13719 0.36302 0.04369 -0.04900
N 	N 	0.13063 0.36655 0.07770 -0.04800
C 	C 	0.12996 0.39881 0.09259 0.04900
N 	N 	0.13642 0.42740 0.07265 -0.05300
N 	N 	0.14369 0.42381 0.03878 -0.05100
C 	C 	0.29711 0.25750 0.17044 0.04900
N 	N 	0.30114 0.29073 0.18221 -0.05100
N 	N 	0.27664 0.31475 0.17581 -0.05100
C 	C 	0.24708 0.30598 0.15814 0.06300
N 	N 	0.24359 0.27309 0.14534 -0.04900
N 	N 	0.26844 0.24928 0.15108 -0.04800
C 	C 	0.15160 0.19309 0.56505 0.03200
N 	N 	0.13018 0.21352 0.54540 -0.05000
N 	N 	0.13126 0.21175 0.51065 -0.06000
C 	C 	0.15375 0.18945 0.49454 0.03200
N 	N 	0.17498 0.16882 0.51420 -0.04900
N 	N 	0.17392 0.17062 0.54895 -0.06000
C 	C 	0.22239 0.15874 0.34686 0.05000
N 	N 	0.25563 0.17086 0.35039 -0.05100
N 	N 	0.27954 0.16425 0.32587 -0.05100
C 	C 	0.27068 0.14599 0.29675 0.06300
N 	N 	0.23780 0.13283 0.29379 -0.04900
N 	N 	0.21410 0.13880 0.31868 -0.04800
C 	C 	0.10899 0.28436 0.31749 0.06300
N 	N 	0.12468 0.31495 0.32642 -0.05100
N 	N 	0.13040 0.33949 0.30236 -0.05100
C 	C 	0.11988 0.33445 0.26888 0.05000
N 	N 	0.10228 0.30474 0.26048 -0.04700
N 	N 	0.09722 0.27988 0.28437 -0.04800
C 	C 	0.44599 0.19062 0.19734 0.03300
N 	N 	0.46489 0.21173 0.17591 -0.05000
N 	N 	0.49980 0.21099 0.17663 -0.06100
C 	C 	0.51682 0.18911 0.19881 0.03200
N 	N 	0.49792 0.16782 0.22007 -0.05000
N 	N 	0.46301 0.16857 0.21935 -0.06100
C 	C 	0.91754 0.40336 0.17556 0.05200
N 	N 	0.94094 0.39996 0.14906 -0.04400
N 	N 	0.97426 0.39197 0.15579 -0.04800
C 	C 	0.98511 0.38721 0.18921 0.06600
N 	N 	0.96183 0.39107 0.21573 -0.05300
N 	N 	0.92835 0.39833 0.20895 -0.06300
C 	C 	0.74105 0.33769 0.16634 0.05000
N 	N 	0.70772 0.34166 0.17804 -0.05100
N 	N 	0.68366 0.31727 0.17142 -0.05100
C 	C 	0.69245 0.28787 0.15356 0.06300
N 	N 	0.72542 0.28449 0.14075 -0.04900
N 	N 	0.74928 0.30924 0.14673 -0.04800
C 	C 	0.97771 0.18189 0.39567 0.06600
N 	N 	0.00112 0.20841 0.39891 -0.05300
N 	N 	0.03465 0.20161 0.40592 -0.06300
C 	C 	0.04541 0.16820 0.41128 0.05200
N 	N 	0.02191 0.14169 0.40844 -0.04400
N 	N 	0.98853 0.14844 0.40070 -0.04800
C 	C 	0.66569 0.16231 0.26585 0.05000
N 	N 	0.66132 0.17399 0.29904 -0.05100
N 	N 	0.68591 0.16814 0.32306 -0.05100
C 	C 	0.71590 0.15114 0.31437 0.06300
N 	N 	0.71975 0.13841 0.28152 -0.04900
N 	N 	0.69483 0.14360 0.25770 -0.04800
C 	C 	0.84316 0.26226 0.34339 0.05000
N 	N 	0.86139 0.25379 0.31411 -0.04700
N 	N 	0.86651 0.27751 0.28911 -0.04800
C 	C 	0.85419 0.31057 0.29302 0.06300
N 	N 	0.83789 0.31962 0.32322 -0.05100
N 	N 	0.83212 0.29570 0.34789 -0.05100
C 	C 	0.61641 0.18098 0.02204 0.06600
N 	N 	0.61050 0.14784 0.03331 -0.04800
N 	N 	0.60254 0.14179 0.06668 -0.04400
C 	C 	0.60029 0.16871 0.08970 0.05200
N 	N 	0.60651 0.20181 0.07847 -0.06300
N 	N 	0.61376 0.20793 0.04497 -0.05300
C 	C 	0.51856 0.19317 0.85888 0.03300
N 	N 	0.49971 0.21380 0.88082 -0.05000
N 	N 	0.46480 0.21323 0.88003 -0.06100
C 	C 	0.44773 0.19203 0.85724 0.03200
N 	N 	0.46658 0.17133 0.83538 -0.04900
N 	N 	0.50148 0.17189 0.83618 -0.06100
C 	C 	0.97788 0.38707 0.86649 0.06600
N 	N 	0.98878 0.39239 0.89981 -0.04800
N 	N 	0.02214 0.40033 0.90638 -0.04400
C 	C 	0.04554 0.40309 0.87982 0.05200
N 	N 	0.03470 0.39744 0.84654 -0.06300
N 	N 	0.00118 0.39023 0.83990 -0.05300
C 	C 	0.82018 0.38817 0.03144 0.06600
N 	N 	0.79350 0.39110 0.00819 -0.05300
N 	N 	0.80018 0.39750 0.97461 -0.06300
C 	C 	0.83361 0.40256 0.96363 0.05200
N 	N 	0.86026 0.40007 0.98697 -0.04400
N 	N 	0.85364 0.39293 0.02041 -0.04800
C 	C 	0.66673 0.25926 0.88698 0.04900
N 	N 	0.69518 0.25130 0.90676 -0.04800
N 	N 	0.71966 0.27538 0.91294 -0.04900
C 	C 	0.71600 0.30827 0.90017 0.06300
N 	N 	0.68657 0.31677 0.88215 -0.05100
N 	N 	0.66245 0.29250 0.87533 -0.05100
C 	C 	0.98696 0.18177 0.66085 0.06600
N 	N 	0.97600 0.14860 0.65446 -0.04900
N 	N 	0.94252 0.14228 0.64677 -0.04400
C 	C 	0.91906 0.16895 0.64535 0.05200
N 	N 	0.92997 0.20206 0.65208 -0.06300
N 	N 	0.96359 0.20846 0.65904 -0.05300
C 	C 	0.81053 0.19096 0.56162 0.03200
N 	N 	0.78917 0.17038 0.54205 -0.04900
N 	N 	0.79030 0.17193 0.50730 -0.06000
C 	C 	0.81284 0.19408 0.49108 0.03300
N 	N 	0.83434 0.21453 0.51065 -0.05000
N 	N 	0.83319 0.21300 0.54541 -0.06000
C 	C 	0.74188 0.16012 0.70926 0.05000
N 	N 	0.70866 0.17231 0.70576 -0.05100
N 	N 	0.68482 0.16595 0.73042 -0.05100
C 	C 	0.69375 0.14790 0.75964 0.06300
N 	N 	0.72660 0.13467 0.76258 -0.04900
N 	N 	0.75021 0.14037 0.73756 -0.04800
C 	C 	0.85434 0.28525 0.73946 0.06300
N 	N 	0.86590 0.28074 0.77266 -0.04800
N 	N 	0.86037 0.30542 0.79663 -0.04700
C 	C 	0.84249 0.33498 0.78824 0.05000
N 	N 	0.83203 0.33999 0.75473 -0.05100
N 	N 	0.83822 0.31564 0.73059 -0.05100
C 	C 	0.59838 0.95822 0.17612 0.05200
N 	N 	0.60412 0.96941 0.20926 -0.06300
N 	N 	0.61147 0.00293 0.21551 -0.05300
C 	C 	0.61471 0.02587 0.18866 0.06600
N 	N 	0.60926 0.01463 0.15547 -0.04800
N 	N 	0.60119 0.98128 0.14929 -0.04400
C 	C 	0.83253 0.08547 0.40703 0.04900
N 	N 	0.83155 0.07079 0.37473 -0.04800
N 	N 	0.82502 0.03675 0.37102 -0.05000
C 	C 	0.81857 0.01662 0.39946 0.06500
N 	N 	0.81920 0.03136 0.43175 -0.05100
N 	N 	0.82646 0.06527 0.43551 -0.05300
C 	C 	0.73824 0.88275 0.34561 0.05000
N 	N 	0.74656 0.90234 0.31720 -0.04800
N 	N 	0.72288 0.90804 0.29225 -0.04900
C 	C 	0.69000 0.89497 0.29540 0.06300
N 	N 	0.68104 0.87728 0.32482 -0.05100
N 	N 	0.70493 0.87093 0.34941 -0.05100
C 	C 	0.81100 0.55667 0.19786 0.03200
N 	N 	0.78932 0.54032 0.17497 -0.06000
N 	N 	0.78829 0.50549 0.17352 -0.05000
C 	C 	0.80890 0.48602 0.19493 0.03300
N 	N 	0.83078 0.50238 0.21762 -0.06100
N 	N 	0.83183 0.53720 0.21904 -0.05000
C 	C 	0.66425 0.78210 0.16887 0.04900
N 	N 	0.66034 0.74890 0.18076 -0.05100
N 	N 	0.68461 0.72479 0.17389 -0.05100
C 	C 	0.71385 0.73343 0.15561 0.06300
N 	N 	0.71720 0.76631 0.14273 -0.04900
N 	N 	0.69255 0.79021 0.14895 -0.04800
C 	C 	0.84984 0.75573 0.31469 0.06300
N 	N 	0.83388 0.72532 0.32375 -0.05100
N 	N 	0.82843 0.70051 0.29990 -0.05100
C 	C 	0.83954 0.70508 0.26654 0.05000
N 	N 	0.85729 0.73467 0.25803 -0.04700
N 	N 	0.86205 0.75981 0.28168 -0.04800
C 	C 	0.04346 0.63675 0.17702 0.05200
N 	N 	0.02033 0.63857 0.15015 -0.04400
N 	N 	0.98686 0.64650 0.15613 -0.04800
C 	C 	0.97556 0.65275 0.18916 0.06600
N 	N 	0.99859 0.65051 0.21607 -0.05300
N 	N 	0.03222 0.64331 0.21001 -0.06300
C 	C 	0.14988 0.48239 0.20149 0.03200
N 	N 	0.17227 0.49881 0.17935 -0.06000
N 	N 	0.17335 0.53363 0.17806 -0.04900
C 	C 	0.15208 0.55304 0.19888 0.03200
N 	N 	0.12955 0.53662 0.22088 -0.06100
N 	N 	0.12846 0.50180 0.22216 -0.05000
C 	C 	0.51543 0.84898 0.19608 0.03300
N 	N 	0.49632 0.82802 0.17469 -0.05000
N 	N 	0.46142 0.82851 0.17603 -0.06000
C 	C 	0.44464 0.84997 0.19881 0.03200
N 	N 	0.46375 0.87114 0.21997 -0.05000
N 	N 	0.49863 0.87064 0.21865 -0.06100
C 	C 	0.34717 0.01336 0.18906 0.06600
N 	N 	0.35354 0.02475 0.15609 -0.04800
N 	N 	0.36128 0.05824 0.15023 -0.04400
C 	C 	0.36280 0.08128 0.17717 0.05300
N 	N 	0.35614 0.06994 0.21009 -0.06300
N 	N 	0.34912 0.03630 0.21604 -0.05300
C 	C 	0.26877 0.75095 0.15641 0.06300
N 	N 	0.23603 0.75365 0.14291 -0.04900
N 	N 	0.21232 0.72880 0.14905 -0.04800
C 	C 	0.22045 0.70095 0.16954 0.04900
N 	N 	0.25355 0.69769 0.18208 -0.05100
N 	N 	0.27748 0.72215 0.17528 -0.05200
C 	C 	0.91577 0.87130 0.40762 0.04900
N 	N 	0.93012 0.86970 0.37518 -0.04800
N 	N 	0.96420 0.86318 0.37124 -0.05000
C 	C 	0.98467 0.85735 0.39959 0.06400
N 	N 	0.97024 0.85858 0.43201 -0.05100
N 	N 	0.93631 0.86583 0.43599 -0.05300
C 	C 	0.14387 0.02380 0.40048 0.06500
N 	N 	0.14289 0.00913 0.43279 -0.05000
N 	N 	0.13555 0.97524 0.43655 -0.05300
C 	C 	0.12970 0.95500 0.40807 0.04900
N 	N 	0.13104 0.96959 0.37574 -0.04800
N 	N 	0.13766 0.00362 0.37202 -0.05000
C 	C 	0.11916 0.77801 0.34503 0.05000
N 	N 	0.13040 0.74462 0.34938 -0.05100
N 	N 	0.12426 0.72065 0.32485 -0.05100
C 	C 	0.10742 0.72960 0.29492 0.06300
N 	N 	0.09501 0.76263 0.29114 -0.04900
N 	N 	0.10047 0.78640 0.31602 -0.04700
C 	C 	0.24575 0.88949 0.31485 0.06300
N 	N 	0.27585 0.87285 0.32384 -0.05100
N 	N 	0.30048 0.86675 0.29993 -0.05100
C 	C 	0.29605 0.87786 0.26657 0.04900
N 	N 	0.26682 0.89628 0.25811 -0.04700
N 	N 	0.24184 0.90168 0.28182 -0.04800
C 	C 	0.81956 0.64906 0.02116 0.06500
N 	N 	0.82497 0.67754 0.04155 -0.05000
N 	N 	0.83088 0.67374 0.07565 -0.04800
C 	C 	0.83224 0.64132 0.09012 0.04900
N 	N 	0.82721 0.61281 0.06966 -0.05300
N 	N 	0.82059 0.61664 0.03569 -0.05100
C 	C 	0.81099 0.55441 0.85668 0.03200
N 	N 	0.83395 0.53796 0.83513 -0.06000
N 	N 	0.83527 0.50313 0.83413 -0.05000
C 	C 	0.81366 0.48376 0.85464 0.03200
N 	N 	0.79088 0.50021 0.87635 -0.06100
N 	N 	0.78958 0.53503 0.87737 -0.04900
C 	C 	0.61690 0.01478 0.86686 0.06600
N 	N 	0.60996 0.02609 0.89974 -0.04800
N 	N 	0.60231 0.05961 0.90558 -0.04400
C 	C 	0.60147 0.08277 0.87871 0.05300
N 	N 	0.60870 0.07151 0.84587 -0.06300
N 	N 	0.61562 0.03784 0.83993 -0.05300
C 	C 	0.60059 0.87138 0.96516 0.05300
N 	N 	0.60738 0.83843 0.97648 -0.06300
N 	N 	0.61376 0.83241 0.01018 -0.05300
C 	C 	0.61494 0.85935 0.03323 0.06600
N 	N 	0.60845 0.89235 0.02187 -0.04800
N 	N 	0.60133 0.89828 0.98831 -0.04400
C 	C 	0.69372 0.75199 0.89981 0.06300
N 	N 	0.72643 0.75450 0.91343 -0.04900
N 	N 	0.75018 0.72977 0.90694 -0.04800
C 	C 	0.74213 0.70225 0.88598 0.05000
N 	N 	0.70907 0.69917 0.87330 -0.05100
N 	N 	0.68509 0.72351 0.88043 -0.05100
C 	C 	0.83309 0.95608 0.64693 0.04900
N 	N 	0.83179 0.97049 0.67934 -0.04800
N 	N 	0.82560 0.00458 0.68326 -0.05000
C 	C 	0.81981 0.02502 0.65490 0.06500
N 	N 	0.82075 0.01055 0.62250 -0.05000
N 	N 	0.82766 0.97659 0.61855 -0.05300
C 	C 	0.81047 0.84755 0.56274 0.03200
N 	N 	0.78817 0.87013 0.54678 -0.06000
N 	N 	0.78659 0.87159 0.51204 -0.04900
C 	C 	0.80725 0.85051 0.49226 0.03200
N 	N 	0.82962 0.82801 0.50821 -0.06000
N 	N 	0.83121 0.82655 0.54295 -0.04900
C 	C 	0.84271 0.77910 0.70986 0.05000
N 	N 	0.83118 0.74577 0.70579 -0.05100
N 	N 	0.83739 0.72188 0.73038 -0.05100
C 	C 	0.85461 0.73086 0.76009 0.06300
N 	N 	0.86726 0.76382 0.76360 -0.04900
N 	N 	0.86173 0.78750 0.73865 -0.04700
C 	C 	0.71727 0.89125 0.74083 0.06300
N 	N 	0.68690 0.87502 0.73202 -0.05100
N 	N 	0.66259 0.86873 0.75619 -0.05100
C 	C 	0.66763 0.87922 0.78967 0.04900
N 	N 	0.69713 0.89723 0.79800 -0.04700
N 	N 	0.72179 0.90285 0.77400 -0.04800
C 	C 	0.98739 0.65416 0.86663 0.06600
N 	N 	0.96427 0.65330 0.83971 -0.05300
N 	N 	0.93057 0.64624 0.84556 -0.06300
C 	C 	0.91934 0.63844 0.87828 0.05200
N 	N 	0.94255 0.63889 0.90515 -0.04400
N 	N 	0.97610 0.64668 0.89941 -0.04900
C 	C 	0.14366 0.64819 0.03408 0.06500
N 	N 	0.14205 0.61588 0.01937 -0.05000
N 	N 	0.13566 0.61237 0.98531 -0.05300
C 	C 	0.13152 0.64109 0.96495 0.04900
N 	N 	0.13350 0.67340 0.97960 -0.04800
N 	N 	0.13916 0.67689 0.01377 -0.05000
C 	C 	0.15398 0.48663 0.85915 0.03200
N 	N 	0.17518 0.50608 0.88000 -0.04900
N 	N 	0.17404 0.54089 0.87870 -0.06000
C 	C 	0.15166 0.55727 0.85653 0.03200
N 	N 	0.13027 0.53783 0.83587 -0.05000
N 	N 	0.13142 0.50301 0.83715 -0.06000
C 	C 	0.44797 0.84938 0.85669 0.03200
N 	N 	0.46485 0.87245 0.83563 -0.06000
N 	N 	0.49976 0.87342 0.83494 -0.05000
C 	C 	0.51878 0.85138 0.85531 0.03200
N 	N 	0.50188 0.82843 0.87647 -0.06100
N 	N 	0.46700 0.82745 0.87715 -0.04900
C 	C 	0.35332 0.02752 0.86666 0.06500
N 	N 	0.32503 0.00631 0.86979 -0.05000
N 	N 	0.32932 0.97215 0.87530 -0.04900
C 	C 	0.36201 0.95842 0.87848 0.04900
N 	N 	0.39029 0.97970 0.87575 -0.05200
N 	N 	0.38601 0.01374 0.86953 -0.05100
C 	C 	0.36032 0.86992 0.09039 0.04900
N 	N 	0.38902 0.86694 0.06973 -0.05200
N 	N 	0.38540 0.86085 0.03565 -0.05100
C 	C 	0.35298 0.85842 0.02120 0.06500
N 	N 	0.32428 0.86177 0.04180 -0.05000
N 	N 	0.32791 0.86713 0.07600 -0.04800
C 	C 	0.30032 0.78103 0.88589 0.05000
N 	N 	0.30347 0.74808 0.87312 -0.05100
N 	N 	0.27893 0.72420 0.87984 -0.05200
C 	C 	0.25017 0.73284 0.89886 0.06300
N 	N 	0.24759 0.76543 0.91262 -0.04900
N 	N 	0.27252 0.78907 0.90656 -0.04800
C 	C 	0.04616 0.87164 0.64683 0.04900
N 	N 	0.03154 0.87122 0.67918 -0.04800
N 	N 	0.99749 0.86460 0.68309 -0.04900
C 	C 	0.97732 0.85745 0.65483 0.06400
N 	N 	0.99201 0.85752 0.62250 -0.05000
N 	N 	0.02593 0.86485 0.61853 -0.05300
C 	C 	0.14522 0.01592 0.65579 0.06500
N 	N 	0.14386 0.03070 0.62355 -0.05100
N 	N 	0.13712 0.06474 0.62004 -0.05300
C 	C 	0.13236 0.08503 0.64871 0.04900
N 	N 	0.13413 0.07031 0.68095 -0.04800
N 	N 	0.14013 0.03615 0.68443 -0.05000
C 	C 	0.15431 0.84970 0.56258 0.03200
N 	N 	0.17521 0.87050 0.54276 -0.04900
N 	N 	0.17360 0.86901 0.50803 -0.06000
C 	C 	0.15103 0.84668 0.49211 0.03200
N 	N 	0.13001 0.82600 0.51192 -0.04900
N 	N 	0.13163 0.82748 0.54666 -0.06000
C 	C 	0.11119 0.75556 0.74023 0.06300
N 	N 	0.09933 0.75980 0.77335 -0.04800
N 	N 	0.10472 0.73495 0.79718 -0.04700
C 	C 	0.12277 0.70552 0.78872 0.05000
N 	N 	0.13351 0.70076 0.75528 -0.05100
N 	N 	0.12744 0.72526 0.73127 -0.05100
C 	C 	0.22325 0.88131 0.70964 0.04900
N 	N 	0.21478 0.90052 0.73827 -0.04700
N 	N 	0.23839 0.90603 0.76332 -0.04900
C 	C 	0.27134 0.89318 0.76006 0.06300
N 	N 	0.28042 0.87581 0.73048 -0.05100
N 	N 	0.25659 0.86960 0.70580 -0.05100
