data_crystal

_cell_length_a 22.00965
_cell_length_b 43.74818
_cell_length_c 39.49597
_cell_angle_alpha 90.79236
_cell_angle_beta  87.94952
_cell_angle_gamma 87.94523

_symmetry_space_group_name_	'P 1'
_symmetry_space_group_name_H-M	'P 1'

loop_
_symmetry_equiv_pos_as_xyz
  x,y,z

loop_
_atom_site_label
_atom_site_type_symbol
_atom_site_fract_x
_atom_site_fract_y
_atom_site_fract_z
_atom_site_charge
Ni	Ni	0.54410 0.52527 0.51213 1.09900
O 	O 	0.59127 0.49348 0.53931 -0.70500
Ni	Ni	0.57483 0.45493 0.51426 1.09900
O 	O 	0.56991 0.55940 0.54392 -0.34100
O 	O 	0.53058 0.53528 0.59045 -0.39900
O 	O 	0.62483 0.52897 0.48515 -0.36900
Ni	Ni	0.56113 0.48956 0.58579 1.06500
O 	O 	0.45810 0.52477 0.44607 -0.41000
O 	O 	0.47510 0.47978 0.57239 -0.40600
O 	O 	0.63105 0.42695 0.54076 -0.34900
O 	O 	0.51735 0.48591 0.49166 -0.70000
O 	O 	0.50253 0.55806 0.48281 -0.34600
O 	O 	0.56579 0.42069 0.47876 -0.34400
O 	O 	0.58407 0.45386 0.43622 -0.40800
Ni	Ni	0.52067 0.48974 0.44237 1.07000
H 	H 	0.63550 0.49696 0.53876 0.15900
H 	H 	0.47463 0.48293 0.49915 0.15800
C 	C 	0.46241 0.45287 0.56010 0.25900
O 	O 	0.58569 0.52105 0.43305 -0.39000
C 	C 	0.55934 0.55839 0.57690 0.24200
C 	C 	0.63102 0.42927 0.57422 0.24400
C 	C 	0.63219 0.52578 0.45210 0.26800
C 	C 	0.56963 0.42649 0.44623 0.24500
C 	C 	0.47338 0.55268 0.45466 0.26700
O 	O 	0.50288 0.43691 0.54124 -0.34600
O 	O 	0.58548 0.44410 0.59124 -0.39400
Ni	Ni	0.92555 0.53967 0.48912 1.10000
O 	O 	0.85376 0.51794 0.46881 -0.69700
Ni	Ni	0.86137 0.47739 0.49268 1.09800
O 	O 	0.92807 0.57389 0.45462 -0.34600
O 	O 	0.89258 0.55312 0.40653 -0.38300
O 	O 	0.86585 0.56727 0.51850 -0.34200
Ni	Ni	0.86526 0.50951 0.41969 1.07300
O 	O 	0.94956 0.55141 0.56447 -0.39600
O 	O 	0.95343 0.49507 0.42580 -0.40700
O 	O 	0.79224 0.45656 0.46965 -0.37800
O 	O 	0.92987 0.50013 0.51412 -0.70800
O 	O 	0.99570 0.55885 0.51254 -0.35500
O 	O 	0.87319 0.44056 0.52395 -0.35500
O 	O 	0.86187 0.47071 0.57140 -0.39400
Ni	Ni	0.91004 0.50982 0.56177 1.06500
H 	H 	0.81390 0.52829 0.47435 0.17600
H 	H 	0.97026 0.48956 0.51113 0.16000
C 	C 	0.96695 0.47026 0.44287 0.24200
O 	O 	0.82830 0.52884 0.55028 -0.42100
C 	C 	0.93492 0.56760 0.42224 0.25500
C 	C 	0.79020 0.45583 0.43644 0.25400
C 	C 	0.82343 0.55669 0.53899 0.26400
C 	C 	0.87497 0.44392 0.55708 0.24600
C 	C 	0.99733 0.55947 0.54580 0.25000
O 	O 	0.92404 0.45583 0.45960 -0.34700
O 	O 	0.83623 0.46572 0.41788 -0.38100
Ni	Ni	0.45499 0.51481 0.05359 1.09800
O 	O 	0.38084 0.53371 0.03015 -0.69600
Ni	Ni	0.39507 0.51965 0.98167 1.09800
O 	O 	0.43522 0.53811 0.09858 -0.35400
O 	O 	0.43159 0.58355 0.07108 -0.38700
O 	O 	0.40163 0.48027 0.07061 -0.35800
Ni	Ni	0.37052 0.57842 0.03263 1.07200
O 	O 	0.55830 0.46079 0.03081 -0.41000
O 	O 	0.43934 0.59103 0.00008 -0.38800
O 	O 	0.32281 0.54164 0.96032 -0.37500
O 	O 	0.46924 0.50136 0.00494 -0.69500
O 	O 	0.52794 0.49300 0.07536 -0.35600
O 	O 	0.41113 0.49502 0.93701 -0.35800
O 	O 	0.41873 0.45072 0.96621 -0.38900
Ni	Ni	0.48611 0.45739 0.00059 1.07400
H 	H 	0.34308 0.52466 0.03916 0.16200
H 	H 	0.50609 0.51153 0.99639 0.15600
C 	C 	0.44720 0.58102 0.96872 0.25900
O 	O 	0.43027 0.43929 0.03690 -0.38600
C 	C 	0.42801 0.56813 0.09933 0.24400
C 	C 	0.31185 0.57119 0.96601 0.25100
C 	C 	0.41878 0.45128 0.06719 0.26400
C 	C 	0.41918 0.46508 0.93732 0.24600
C 	C 	0.55264 0.46668 0.06369 0.25600
O 	O 	0.45198 0.55156 0.96211 -0.36600
O 	O 	0.30514 0.58227 0.99729 -0.38600
Ni	Ni	0.60608 0.97597 0.50670 1.10200
O 	O 	0.55013 0.00356 0.53733 -0.70400
Ni	Ni	0.57169 0.04475 0.52017 1.09900
O 	O 	0.60681 0.93957 0.53880 -0.35000
O 	O 	0.63060 0.97102 0.58230 -0.40900
O 	O 	0.53154 0.95811 0.48425 -0.34900
Ni	Ni	0.55989 0.00364 0.58621 1.07000
O 	O 	0.60305 0.96965 0.42835 -0.38200
O 	O 	0.62037 0.03733 0.59355 -0.38400
O 	O 	0.53202 0.07247 0.55811 -0.35800
O 	O 	0.61608 0.01633 0.48503 -0.70600
O 	O 	0.65959 0.95166 0.47253 -0.37100
O 	O 	0.58875 0.08222 0.49129 -0.34100
O 	O 	0.54838 0.06005 0.44478 -0.39700
Ni	Ni	0.57913 0.01442 0.44122 1.06800
H 	H 	0.50688 0.00034 0.53283 0.16000
H 	H 	0.65981 0.02067 0.48223 0.16500
C 	C 	0.66595 0.04179 0.57223 0.26600
O 	O 	0.49663 0.00238 0.46053 -0.40800
C 	C 	0.62072 0.94347 0.57056 0.24900
C 	C 	0.49174 0.06368 0.58158 0.25700
C 	C 	0.48760 0.97440 0.47057 0.25900
C 	C 	0.58012 0.08180 0.45846 0.24200
C 	C 	0.64977 0.95307 0.43973 0.25200
O 	O 	0.65569 0.04812 0.54057 -0.36400
O 	O 	0.48999 0.03500 0.59200 -0.39200
Ni	Ni	0.03293 0.51632 0.95597 1.10000
O 	O 	0.09996 0.53882 0.97920 -0.70200
Ni	Ni	0.10579 0.51571 0.02276 1.10100
O 	O 	0.01160 0.55155 0.92421 -0.35300
O 	O 	0.00147 0.58533 0.96866 -0.41100
O 	O 	0.09483 0.49965 0.91918 -0.36000
Ni	Ni	0.08764 0.58245 0.98863 1.07000
O 	O 	0.03448 0.44743 0.93711 -0.39000
O 	O 	0.04780 0.58311 0.03626 -0.38600
O 	O 	0.16050 0.54328 0.05043 -0.35100
O 	O 	0.04728 0.49000 0.99626 -0.70400
O 	O 	0.97018 0.48987 0.93460 -0.35500
O 	O 	0.11228 0.48284 0.05925 -0.35300
O 	O 	0.14407 0.44674 0.01953 -0.38500
Ni	Ni	0.08461 0.45142 0.97983 1.06600
H 	H 	0.13910 0.53582 0.96628 0.16300
H 	H 	0.00867 0.48666 0.00909 0.16000
C 	C 	0.01069 0.56238 0.04718 0.26200
O 	O 	0.15334 0.47279 0.95540 -0.39900
C 	C 	0.99221 0.57825 0.93679 0.23900
C 	C 	0.17455 0.57151 0.04217 0.26100
C 	C 	0.14607 0.48491 0.92575 0.26100
C 	C 	0.12979 0.45446 0.05125 0.24000
C 	C 	0.97906 0.45982 0.93376 0.24000
O 	O 	0.02899 0.53349 0.04799 -0.36300
O 	O 	0.16897 0.58147 0.01095 -0.39700
Ni	Ni	0.93414 0.96593 0.50504 1.10000
O 	O 	0.99149 0.99394 0.47869 -0.70100
Ni	Ni	0.97662 0.03319 0.50429 1.10100
O 	O 	0.95902 0.92957 0.47342 -0.35500
O 	O 	0.94083 0.95699 0.42559 -0.38000
O 	O 	0.00866 0.95642 0.53315 -0.38000
Ni	Ni	0.97122 0.00129 0.43199 1.06700
O 	O 	0.83673 0.97713 0.56926 -0.40200
O 	O 	0.88361 0.01484 0.44492 -0.39300
O 	O 	0.04004 0.05747 0.47886 -0.35900
O 	O 	0.91217 0.00681 0.52590 -0.70500
O 	O 	0.88045 0.93814 0.53494 -0.35200
O 	O 	0.96744 0.06636 0.54140 -0.36600
O 	O 	0.98277 0.03121 0.58273 -0.38700
Ni	Ni	0.90994 0.00306 0.57500 1.07500
H 	H 	0.03474 0.98713 0.47991 0.16200
H 	H 	0.87100 0.01326 0.51895 0.16400
C 	C 	0.87001 0.04147 0.45941 0.25300
O 	O 	0.96026 0.96400 0.58491 -0.38600
C 	C 	0.96562 0.93293 0.44031 0.24000
C 	C 	0.04142 0.05873 0.44545 0.24700
C 	C 	0.00612 0.95261 0.56599 0.27800
C 	C 	0.98155 0.05983 0.57264 0.23900
C 	C 	0.84131 0.94801 0.55962 0.25700
O 	O 	0.91036 0.05555 0.47729 -0.36000
O 	O 	0.99865 0.04575 0.42768 -0.39300
Ni	Ni	0.43789 0.03668 0.00254 1.09700
O 	O 	0.36527 0.02188 0.97667 -0.69800
Ni	Ni	0.35687 0.97890 0.99400 1.09700
O 	O 	0.45137 0.07415 0.97254 -0.35600
O 	O 	0.45346 0.04498 0.92421 -0.40500
O 	O 	0.37869 0.06433 0.03161 -0.37300
Ni	Ni	0.37119 0.02297 0.92700 1.07500
O 	O 	0.49001 0.02050 0.07948 -0.39100
O 	O 	0.42038 0.98338 0.91605 -0.37500
O 	O 	0.29049 0.96372 0.96342 -0.36800
O 	O 	0.42687 0.99475 0.02131 -0.70100
O 	O 	0.50684 0.04977 0.03211 -0.37200
O 	O 	0.34935 0.94006 0.02259 -0.36000
O 	O 	0.33886 0.96932 0.07059 -0.39100
Ni	Ni	0.41381 0.99670 0.07045 1.07200
H 	H 	0.32826 0.03393 0.98428 0.16400
H 	H 	0.46456 0.98229 0.01610 0.15700
C 	C 	0.45116 0.96831 0.93864 0.24000
O 	O 	0.35389 0.03303 0.07484 -0.38700
C 	C 	0.46145 0.07130 0.93962 0.24400
C 	C 	0.29080 0.97109 0.93114 0.27000
C 	C 	0.36623 0.06021 0.06392 0.25900
C 	C 	0.34138 0.94232 0.05571 0.24000
C 	C 	0.50520 0.04665 0.06544 0.25400
O 	O 	0.42213 0.95589 0.96428 -0.35700
O 	O 	0.29319 0.00006 0.92260 -0.36600
Ni	Ni	0.11086 0.00129 0.98727 1.09800
O 	O 	0.03242 0.98245 0.00505 -0.69600
Ni	Ni	0.02575 0.99670 0.05358 1.09800
O 	O 	0.11711 0.97453 0.94415 -0.34600
O 	O 	0.11092 0.93150 0.97557 -0.39900
O 	O 	0.05798 0.03234 0.96191 -0.35900
Ni	Ni	0.02730 0.93808 0.00122 1.07200
O 	O 	0.18507 0.06359 0.00932 -0.40600
O 	O 	0.06834 0.92081 0.04319 -0.36900
O 	O 	0.95110 0.97320 0.07078 -0.36800
O 	O 	0.10313 0.01693 0.03530 -0.69500
O 	O 	0.18627 0.02368 0.97069 -0.36000
O 	O 	0.02393 0.02135 0.09849 -0.36300
O 	O 	0.02865 0.06571 0.06910 -0.39000
Ni	Ni	0.10496 0.06163 0.03684 1.07200
H 	H 	0.99745 0.99175 0.99335 0.15600
H 	H 	0.13875 0.00879 0.04736 0.15500
C 	C 	0.07075 0.93487 0.07269 0.26400
O 	O 	0.05172 0.07360 0.99756 -0.39300
C 	C 	0.12328 0.94469 0.94656 0.24300
C 	C 	0.93688 0.94623 0.05802 0.25500
C 	C 	0.06006 0.06197 0.96691 0.26000
C 	C 	0.02653 0.05138 0.09807 0.24200
C 	C 	0.19372 0.05289 0.97789 0.24700
O 	O 	0.08153 0.96416 0.07438 -0.38000
O 	O 	0.94420 0.94008 0.02527 -0.39300
Ni	Ni	0.80039 0.76447 0.26220 1.10100
O 	O 	0.72549 0.74305 0.24654 -0.70700
Ni	Ni	0.74333 0.70050 0.26205 1.10000
O 	O 	0.79169 0.79915 0.22819 -0.35800
O 	O 	0.78592 0.76591 0.18325 -0.39900
O 	O 	0.74751 0.79080 0.29630 -0.35900
Ni	Ni	0.70975 0.74141 0.19837 1.07000
O 	O 	0.84038 0.77145 0.33621 -0.37700
O 	O 	0.75162 0.70090 0.18199 -0.37200
O 	O 	0.67975 0.67728 0.23579 -0.34900
O 	O 	0.81013 0.72402 0.28451 -0.70400
O 	O 	0.87418 0.78348 0.28228 -0.36500
O 	O 	0.76406 0.66214 0.28943 -0.34200
O 	O 	0.75409 0.68933 0.33939 -0.39500
Ni	Ni	0.79782 0.73049 0.33300 1.07000
H 	H 	0.68830 0.75117 0.25885 0.15800
H 	H 	0.85122 0.71486 0.27920 0.16000
C 	C 	0.80272 0.68988 0.19373 0.26800
O 	O 	0.71472 0.75161 0.32885 -0.39600
C 	C 	0.79655 0.79349 0.19541 0.23800
C 	C 	0.63166 0.69022 0.22160 0.25400
C 	C 	0.70944 0.78011 0.31931 0.25800
C 	C 	0.77088 0.66401 0.32245 0.23900
C 	C 	0.88412 0.78057 0.31499 0.24300
O 	O 	0.80987 0.68794 0.22649 -0.38100
O 	O 	0.63266 0.71822 0.20876 -0.40100
Ni	Ni	0.82969 0.19423 0.76522 1.09800
O 	O 	0.89437 0.22055 0.74245 -0.69800
Ni	Ni	0.87100 0.26247 0.76196 1.09600
O 	O 	0.84717 0.15638 0.73420 -0.34400
O 	O 	0.84055 0.18492 0.68677 -0.39600
O 	O 	0.89276 0.17434 0.79640 -0.35900
Ni	Ni	0.89653 0.22156 0.69268 1.07900
O 	O 	0.80001 0.18801 0.84202 -0.39300
O 	O 	0.82199 0.24871 0.68188 -0.38400
O 	O 	0.92876 0.28897 0.73412 -0.37300
O 	O 	0.81136 0.23534 0.78736 -0.70300
O 	O 	0.76459 0.17133 0.79129 -0.35100
O 	O 	0.84536 0.30017 0.79155 -0.36000
O 	O 	0.86420 0.27508 0.84068 -0.38500
Ni	Ni	0.82941 0.23161 0.83531 1.06600
H 	H 	0.93547 0.21448 0.74989 0.16000
H 	H 	0.76837 0.24195 0.78455 0.16000
C 	C 	0.80394 0.27398 0.69820 0.25900
O 	O 	0.91719 0.21700 0.82588 -0.39300
C 	C 	0.85178 0.15857 0.70109 0.24700
C 	C 	0.93944 0.28431 0.70133 0.25100
C 	C 	0.93129 0.18936 0.81445 0.25800
C 	C 	0.84382 0.29948 0.82493 0.24400
C 	C 	0.75704 0.17532 0.82440 0.24400
O 	O 	0.80060 0.27472 0.73150 -0.36700
O 	O 	0.95414 0.25673 0.68917 -0.37700
Ni	Ni	0.27727 0.75340 0.67931 1.10100
O 	O 	0.33097 0.78193 0.70554 -0.70100
Ni	Ni	0.32630 0.76551 0.75267 1.09900
O 	O 	0.28153 0.77948 0.63645 -0.35700
O 	O 	0.24781 0.82176 0.66682 -0.39400
O 	O 	0.35728 0.73106 0.66397 -0.37100
Ni	Ni	0.31015 0.82543 0.70490 1.07200
O 	O 	0.20821 0.69064 0.69856 -0.39600
O 	O 	0.23702 0.82772 0.73831 -0.39400
O 	O 	0.38039 0.79582 0.77611 -0.35600
O 	O 	0.26819 0.73854 0.72723 -0.69400
O 	O 	0.22853 0.72185 0.65333 -0.36000
O 	O 	0.32920 0.73780 0.79459 -0.35700
O 	O 	0.35310 0.69706 0.75984 -0.39200
Ni	Ni	0.27964 0.69415 0.72888 1.07500
H 	H 	0.37369 0.77920 0.69705 0.16100
H 	H 	0.22593 0.74379 0.73527 0.15700
C 	C 	0.23806 0.81734 0.76922 0.26100
O 	O 	0.33755 0.68571 0.68834 -0.37300
C 	C 	0.26086 0.80809 0.63744 0.24000
C 	C 	0.37547 0.82564 0.77078 0.25500
C 	C 	0.37663 0.70560 0.67782 0.25400
C 	C 	0.34488 0.70861 0.79049 0.24200
C 	C 	0.21393 0.69492 0.66566 0.26500
O 	O 	0.25157 0.78837 0.77435 -0.36300
O 	O 	0.37284 0.83641 0.73958 -0.39100
Ni	Ni	0.26170 0.29379 0.74162 1.09900
O 	O 	0.18479 0.27088 0.73217 -0.70000
Ni	Ni	0.19996 0.23033 0.75373 1.09900
O 	O 	0.23854 0.32913 0.71039 -0.34600
O 	O 	0.22717 0.29599 0.66616 -0.39900
O 	O 	0.21132 0.31557 0.77969 -0.36500
Ni	Ni	0.16271 0.26633 0.68519 1.07400
O 	O 	0.36918 0.28630 0.79875 -0.40900
O 	O 	0.21645 0.22984 0.66727 -0.37400
O 	O 	0.12322 0.20818 0.74035 -0.37200
O 	O 	0.27762 0.25317 0.76317 -0.69600
O 	O 	0.33698 0.31676 0.75533 -0.35700
O 	O 	0.22073 0.19525 0.78622 -0.36600
O 	O 	0.23328 0.22965 0.82905 -0.38700
Ni	Ni	0.29930 0.25849 0.81048 1.06900
H 	H 	0.14958 0.28104 0.74456 0.16100
H 	H 	0.31278 0.24296 0.75078 0.15400
C 	C 	0.23091 0.20515 0.68427 0.26100
O 	O 	0.24439 0.29429 0.82815 -0.38800
C 	C 	0.23090 0.32416 0.67796 0.24200
C 	C 	0.09559 0.21299 0.71147 0.24800
C 	C 	0.23009 0.31858 0.81056 0.26700
C 	C 	0.22993 0.20117 0.81842 0.23900
C 	C 	0.36109 0.31367 0.78534 0.25600
O 	O 	0.24879 0.20754 0.71557 -0.38200
O 	O 	0.09083 0.24071 0.69868 -0.38600
Ni	Ni	0.25906 0.73257 0.28049 1.10000
O 	O 	0.33337 0.75255 0.25933 -0.70300
Ni	Ni	0.32790 0.79396 0.28255 1.09900
O 	O 	0.25450 0.69962 0.24325 -0.36400
O 	O 	0.25540 0.73553 0.20215 -0.39700
O 	O 	0.31359 0.70188 0.30600 -0.35000
Ni	Ni	0.33645 0.75703 0.21019 1.07000
O 	O 	0.23288 0.72011 0.35678 -0.39600
O 	O 	0.29046 0.79796 0.20365 -0.38300
O 	O 	0.39144 0.81783 0.25471 -0.36100
O 	O 	0.26085 0.77120 0.30778 -0.70500
O 	O 	0.18638 0.71539 0.30557 -0.36100
O 	O 	0.31920 0.82960 0.31697 -0.34500
O 	O 	0.33407 0.79766 0.36169 -0.39800
Ni	Ni	0.28015 0.75998 0.35373 1.06600
H 	H 	0.37126 0.74174 0.26595 0.15800
H 	H 	0.22088 0.78231 0.30760 0.16100
C 	C 	0.24790 0.81001 0.22437 0.25400
O 	O 	0.35869 0.73667 0.33948 -0.40800
C 	C 	0.24704 0.70729 0.21160 0.24200
C 	C 	0.40905 0.80994 0.22328 0.26300
C 	C 	0.35823 0.70941 0.32535 0.25800
C 	C 	0.32296 0.82535 0.34985 0.24300
C 	C 	0.18531 0.71253 0.33883 0.25100
O 	O 	0.25799 0.81407 0.25674 -0.36500
O 	O 	0.41302 0.78085 0.21410 -0.39900
Ni	Ni	0.71002 0.20920 0.26555 1.10100
O 	O 	0.62539 0.22891 0.27286 -0.70100
Ni	Ni	0.63853 0.27113 0.25558 1.10000
O 	O 	0.69201 0.17316 0.29625 -0.36700
O 	O 	0.66313 0.20503 0.34041 -0.37900
O 	O 	0.68016 0.18381 0.22547 -0.36000
Ni	Ni	0.59123 0.22981 0.31943 1.07900
O 	O 	0.78579 0.20250 0.19817 -0.39000
O 	O 	0.62372 0.26787 0.34285 -0.36700
O 	O 	0.55544 0.29183 0.26860 -0.35200
O 	O 	0.72170 0.25024 0.24533 -0.70600
O 	O 	0.79525 0.19195 0.25469 -0.36400
O 	O 	0.66534 0.30967 0.23135 -0.36500
O 	O 	0.69034 0.28335 0.18188 -0.38300
Ni	Ni	0.73783 0.24378 0.19687 1.06600
H 	H 	0.59588 0.21895 0.25839 0.16100
H 	H 	0.75532 0.26083 0.25598 0.16200
C 	C 	0.64351 0.29188 0.32692 0.26700
O 	O 	0.65832 0.22279 0.18961 -0.39000
C 	C 	0.68245 0.17789 0.32888 0.24500
C 	C 	0.52208 0.28402 0.29544 0.25400
C 	C 	0.64798 0.19544 0.20100 0.25500
C 	C 	0.68302 0.30940 0.19914 0.24800
C 	C 	0.81835 0.19177 0.22343 0.25000
O 	O 	0.67492 0.28852 0.29826 -0.38300
O 	O 	0.51809 0.25505 0.30424 -0.40200
Ni	Ni	0.27022 0.29700 0.28099 1.10000
O 	O 	0.32475 0.27508 0.31420 -0.70700
Ni	Ni	0.32911 0.23278 0.29499 1.10100
O 	O 	0.24440 0.33128 0.31476 -0.35400
O 	O 	0.21806 0.29699 0.35556 -0.40400
O 	O 	0.34255 0.32290 0.26593 -0.36300
Ni	Ni	0.30079 0.27337 0.36201 1.07200
O 	O 	0.26642 0.29249 0.19654 -0.40200
O 	O 	0.26030 0.23196 0.36694 -0.38300
O 	O 	0.37031 0.21149 0.33437 -0.35300
O 	O 	0.28372 0.25599 0.25845 -0.70200
O 	O 	0.22235 0.31740 0.24388 -0.36000
O 	O 	0.34284 0.19454 0.26458 -0.35700
O 	O 	0.38737 0.22397 0.22414 -0.38700
Ni	Ni	0.32585 0.25979 0.21468 1.07000
H 	H 	0.36607 0.28318 0.31220 0.16600
H 	H 	0.24370 0.24704 0.25497 0.15800
C 	C 	0.22748 0.21903 0.34397 0.26800
O 	O 	0.39006 0.28921 0.22869 -0.38400
C 	C 	0.21559 0.32503 0.34346 0.23800
C 	C 	0.40318 0.22651 0.35605 0.25500
C 	C 	0.37615 0.31736 0.23823 0.26000
C 	C 	0.36924 0.19717 0.23434 0.23600
C 	C 	0.24602 0.31802 0.21262 0.25200
O 	O 	0.24547 0.21850 0.31185 -0.36800
O 	O 	0.38146 0.25172 0.37219 -0.39600
Ni	Ni	0.60020 0.78893 0.76071 1.10200
O 	O 	0.66934 0.76610 0.78451 -0.70200
Ni	Ni	0.67253 0.72598 0.75959 1.10000
O 	O 	0.60802 0.82683 0.79125 -0.33500
O 	O 	0.60094 0.79902 0.83960 -0.39300
O 	O 	0.66814 0.80546 0.72977 -0.36600
Ni	Ni	0.65013 0.75789 0.83186 1.06800
O 	O 	0.51068 0.77156 0.69967 -0.41700
O 	O 	0.57083 0.73816 0.82029 -0.39200
O 	O 	0.74484 0.70696 0.78339 -0.37000
O 	O 	0.59762 0.74696 0.74002 -0.70000
O 	O 	0.53396 0.81196 0.73455 -0.34300
O 	O 	0.68022 0.69239 0.72275 -0.35500
O 	O 	0.67755 0.72856 0.68179 -0.40900
Ni	Ni	0.59261 0.74986 0.69100 1.07300
H 	H 	0.70868 0.77626 0.78192 0.16000
H 	H 	0.56009 0.73748 0.74858 0.16300
C 	C 	0.57055 0.71009 0.80833 0.25500
O 	O 	0.62713 0.79144 0.67971 -0.39000
C 	C 	0.61560 0.82427 0.82400 0.24400
C 	C 	0.74499 0.70768 0.81686 0.24500
C 	C 	0.66966 0.80465 0.69645 0.27000
C 	C 	0.68794 0.70007 0.69085 0.24100
C 	C 	0.50655 0.80097 0.70784 0.26500
O 	O 	0.61588 0.69911 0.78844 -0.36000
O 	O 	0.69500 0.71623 0.83474 -0.38700
C 	C 	0.90172 0.12649 0.19573 0.11700
C 	C 	0.92145 0.09573 0.19370 -0.08500
C 	C 	0.97536 0.08831 0.17469 0.00700
C 	C 	0.00769 0.11062 0.15810 0.12300
C 	C 	0.98804 0.14150 0.16111 -0.09300
C 	C 	0.93284 0.14830 0.17869 0.01400
O 	O 	0.85935 0.13811 0.21982 -0.18100
C 	C 	0.86779 0.16941 0.21499 0.04900
C 	C 	0.91356 0.17557 0.19142 -0.06500
O 	O 	0.04126 0.09970 0.12984 -0.20600
C 	C 	0.02367 0.06932 0.12975 0.04100
C 	C 	0.98525 0.06219 0.15666 -0.05500
H 	H 	0.89545 0.07818 0.20596 0.06800
H 	H 	0.01245 0.15913 0.14799 0.06400
H 	H 	0.91964 0.19726 0.17907 0.04200
H 	H 	0.95381 0.04367 0.15627 0.05900
C 	C 	0.17033 0.86910 0.18435 0.11600
C 	C 	0.14711 0.89862 0.17809 -0.08600
C 	C 	0.10423 0.90194 0.15269 0.01100
C 	C 	0.08681 0.87706 0.13370 0.11700
C 	C 	0.10982 0.84754 0.14067 -0.08600
C 	C 	0.15382 0.84473 0.16523 0.01500
O 	O 	0.19989 0.86112 0.21358 -0.18800
C 	C 	0.20009 0.82917 0.20962 0.04600
C 	C 	0.17000 0.81932 0.18152 -0.06300
O 	O 	0.06696 0.88466 0.10186 -0.18800
C 	C 	0.07602 0.91609 0.10305 0.04400
C 	C 	0.09777 0.92670 0.13320 -0.05700
H 	H 	0.16215 0.91822 0.19213 0.06700
H 	H 	0.09692 0.82792 0.12591 0.06900
H 	H 	0.17486 0.79668 0.17003 0.05900
H 	H 	0.12242 0.94753 0.13609 0.06400
C 	C 	0.23775 0.09297 0.90476 0.09800
C 	C 	0.22218 0.10162 0.87191 -0.08500
C 	C 	0.21013 0.13281 0.86613 0.00600
C 	C 	0.21737 0.15469 0.89083 0.11800
C 	C 	0.23476 0.14621 0.92322 -0.09200
C 	C 	0.24657 0.11506 0.92925 0.00700
O 	O 	0.22395 0.06458 0.91788 -0.19300
C 	C 	0.22434 0.07193 0.95249 0.02400
C 	C 	0.23807 0.10187 0.95940 -0.06300
O 	O 	0.22489 0.18387 0.87848 -0.19600
C 	C 	0.22264 0.17720 0.84383 0.04300
C 	C 	0.21388 0.14679 0.83606 -0.05700
H 	H 	0.21573 0.08456 0.85236 0.06500
H 	H 	0.23973 0.16331 0.94292 0.06400
H 	H 	0.22450 0.11422 0.98259 0.05100
H 	H 	0.22547 0.13563 0.81192 0.05600
C 	C 	0.18104 0.85133 0.84567 0.11700
C 	C 	0.18910 0.85659 0.88020 -0.08900
C 	C 	0.19167 0.88694 0.89171 0.01100
C 	C 	0.18355 0.91127 0.87023 0.11800
C 	C 	0.17656 0.90597 0.83559 -0.08600
C 	C 	0.17288 0.87562 0.82421 0.00900
O 	O 	0.20114 0.82434 0.82938 -0.18400
C 	C 	0.20525 0.83500 0.79624 0.04200
C 	C 	0.18872 0.86550 0.79291 -0.05600
O 	O 	0.16143 0.93800 0.88644 -0.18100
C 	C 	0.15583 0.92705 0.91940 0.04700
C 	C 	0.17386 0.89678 0.92282 -0.06100
H 	H 	0.19496 0.83768 0.89734 0.06700
H 	H 	0.17121 0.92486 0.81838 0.06900
H 	H 	0.20449 0.87987 0.77249 0.05100
H 	H 	0.15876 0.88216 0.94316 0.05600
C 	C 	0.04593 0.15767 0.86441 0.11900
C 	C 	0.06255 0.15270 0.89790 -0.08600
C 	C 	0.07498 0.12252 0.90782 0.01300
C 	C 	0.06302 0.09794 0.88718 0.11800
C 	C 	0.04191 0.10286 0.85455 -0.08600
C 	C 	0.03782 0.13306 0.84290 0.01300
O 	O 	0.01489 0.18433 0.85523 -0.18800
C 	C 	0.98559 0.17322 0.82703 0.04400
C 	C 	0.99941 0.14281 0.81932 -0.05900
O 	O 	0.05242 0.07113 0.90467 -0.17900
C 	C 	0.05735 0.08236 0.93773 0.04600
C 	C 	0.07135 0.11275 0.93979 -0.06000
H 	H 	0.06203 0.17147 0.91609 0.06800
H 	H 	0.02529 0.08410 0.83974 0.07100
H 	H 	0.97063 0.12801 0.80521 0.06700
H 	H 	0.06587 0.12719 0.96229 0.05200
C 	C 	0.89601 0.87733 0.09387 0.12000
C 	C 	0.86949 0.84875 0.09680 -0.08900
C 	C 	0.86939 0.83492 0.12870 0.01100
C 	C 	0.88446 0.85093 0.15738 0.11600
C 	C 	0.90544 0.88081 0.15471 -0.08500
C 	C 	0.91523 0.89232 0.12206 0.01400
O 	O 	0.88947 0.89587 0.06591 -0.19300
C 	C 	0.90814 0.92350 0.07993 0.04500
C 	C 	0.92014 0.92183 0.11407 -0.05600
O 	O 	0.85890 0.83985 0.18726 -0.18500
C 	C 	0.82685 0.81579 0.17362 0.04400
C 	C 	0.83268 0.81269 0.13883 -0.05900
H 	H 	0.84827 0.83822 0.07546 0.06500
H 	H 	0.91133 0.89485 0.17708 0.06900
H 	H 	0.94569 0.93816 0.12811 0.06000
H 	H 	0.80179 0.80077 0.12296 0.04900
C 	C 	0.57031 0.09115 0.12880 0.11800
C 	C 	0.56843 0.10208 0.16232 -0.08800
C 	C 	0.56620 0.13383 0.16791 0.01700
C 	C 	0.56830 0.15400 0.14134 0.11800
C 	C 	0.56965 0.14298 0.10781 -0.09000
C 	C 	0.57332 0.11126 0.10230 0.01200
O 	O 	0.54922 0.06271 0.12002 -0.19100
C 	C 	0.53916 0.06793 0.08581 0.04700
C 	C 	0.55325 0.09676 0.07501 -0.05900
O 	O 	0.59134 0.18210 0.14973 -0.18700
C 	C 	0.60539 0.17639 0.18332 0.04700
C 	C 	0.58999 0.14785 0.19451 -0.05800
H 	H 	0.56717 0.08642 0.18330 0.06800
H 	H 	0.57064 0.15861 0.08678 0.06600
H 	H 	0.53420 0.10796 0.05328 0.06000
H 	H 	0.61084 0.13608 0.21535 0.06300
C 	C 	0.32907 0.10898 0.13278 0.11500
C 	C 	0.32486 0.11087 0.16824 -0.09100
C 	C 	0.36540 0.12945 0.18487 0.01000
C 	C 	0.40639 0.14676 0.16703 0.11500
C 	C 	0.40987 0.14517 0.13155 -0.09000
C 	C 	0.36894 0.12687 0.11494 0.00700
O 	O 	0.31270 0.08311 0.11512 -0.19400
C 	C 	0.34786 0.08671 0.08535 0.04000
C 	C 	0.38080 0.11292 0.08487 -0.05800
O 	O 	0.42377 0.17244 0.18463 -0.19500
C 	C 	0.38695 0.16988 0.21395 0.04300
C 	C 	0.35269 0.14406 0.21455 -0.06100
H 	H 	0.29264 0.09744 0.18243 0.06600
H 	H 	0.44086 0.15921 0.11731 0.06600
H 	H 	0.42191 0.11572 0.06948 0.05400
H 	H 	0.31042 0.14216 0.22920 0.05900
C 	C 	0.38035 0.84321 0.14647 0.11500
C 	C 	0.38409 0.84907 0.11166 -0.09200
C 	C 	0.34462 0.87202 0.09928 0.01000
C 	C 	0.31034 0.89134 0.12109 0.11600
C 	C 	0.31246 0.88740 0.15626 -0.08800
C 	C 	0.34493 0.86176 0.16780 0.01900
O 	O 	0.42197 0.82455 0.16284 -0.20100
C 	C 	0.40612 0.83308 0.19655 0.04000
C 	C 	0.36335 0.85718 0.19928 -0.05400
O 	O 	0.29502 0.91939 0.10722 -0.19200
C 	C 	0.32477 0.91558 0.07547 0.04400
C 	C 	0.35440 0.88741 0.07049 -0.06000
H 	H 	0.41746 0.83700 0.09512 0.06300
H 	H 	0.29215 0.90442 0.17379 0.07100
H 	H 	0.33659 0.86353 0.22202 0.07400
H 	H 	0.39306 0.88313 0.05307 0.05300
C 	C 	0.58302 0.92219 0.92175 0.11700
C 	C 	0.60559 0.89185 0.91973 -0.08900
C 	C 	0.63118 0.88084 0.88870 0.01300
C 	C 	0.62806 0.89804 0.85966 0.11400
C 	C 	0.60348 0.92801 0.86143 -0.08400
C 	C 	0.58450 0.94023 0.89327 0.01000
O 	O 	0.53869 0.93154 0.94598 -0.19300
C 	C 	0.51240 0.95612 0.92896 0.04200
C 	C 	0.53987 0.96174 0.89785 -0.05800
O 	O 	0.62756 0.88062 0.82999 -0.18100
C 	C 	0.62894 0.85154 0.84403 0.04400
C 	C 	0.63167 0.85138 0.87881 -0.06800
H 	H 	0.59813 0.87655 0.94069 0.06500
H 	H 	0.59411 0.94030 0.83846 0.06900
H 	H 	0.51779 0.97357 0.87744 0.06000
H 	H 	0.61713 0.83281 0.89472 0.05100
C 	C 	0.55980 0.12795 0.90998 0.11200
C 	C 	0.61671 0.14116 0.91249 -0.08800
C 	C 	0.65673 0.13949 0.88400 0.01000
C 	C 	0.63966 0.12758 0.85348 0.11600
C 	C 	0.58255 0.11476 0.85075 -0.08900
C 	C 	0.54264 0.11598 0.87937 0.01100
O 	O 	0.52880 0.11626 0.93797 -0.18700
C 	C 	0.49269 0.09561 0.92126 0.04300
C 	C 	0.50050 0.09535 0.88639 -0.06500
O 	O 	0.67281 0.13801 0.82557 -0.18400
C 	C 	0.71067 0.15769 0.84250 0.04300
C 	C 	0.70147 0.15876 0.87727 -0.05800
H 	H 	0.63043 0.15092 0.93626 0.06500
H 	H 	0.56911 0.10482 0.82701 0.06600
H 	H 	0.49035 0.07634 0.86990 0.05100
H 	H 	0.71439 0.17724 0.89377 0.04300
C 	C 	0.36076 0.92857 0.86425 0.12300
C 	C 	0.37931 0.92099 0.83084 -0.09000
C 	C 	0.39859 0.89060 0.82361 0.01400
C 	C 	0.38957 0.86773 0.84684 0.11800
C 	C 	0.36620 0.87515 0.87961 -0.08400
C 	C 	0.35742 0.90624 0.88832 0.01500
O 	O 	0.32813 0.95544 0.87300 -0.19300
C 	C 	0.30598 0.94735 0.90519 0.04800
C 	C 	0.32100 0.91752 0.91370 -0.05300
O 	O 	0.38440 0.83886 0.83224 -0.18200
C 	C 	0.39089 0.84674 0.79814 0.05100
C 	C 	0.39902 0.87745 0.79280 -0.05200
H 	H 	0.37599 0.93773 0.81097 0.06500
H 	H 	0.35205 0.85745 0.89678 0.07100
H 	H 	0.31690 0.90793 0.93878 0.06600
H 	H 	0.38820 0.88932 0.76975 0.05500
C 	C 	0.01170 0.16578 0.66000 0.09500
C 	C 	0.00277 0.15827 0.62598 -0.08900
C 	C 	0.02118 0.12893 0.61422 0.01400
C 	C 	0.04206 0.10683 0.63586 0.11700
C 	C 	0.05145 0.11424 0.66987 -0.08700
C 	C 	0.03500 0.14400 0.68149 0.01300
O 	O 	0.02122 0.19558 0.67023 -0.23500
C 	C 	0.05544 0.18977 0.69868 0.03500
C 	C 	0.06341 0.15910 0.70584 -0.06500
O 	O 	0.03360 0.07705 0.62470 -0.18900
C 	C 	0.00541 0.08371 0.59437 0.04800
C 	C 	0.99781 0.11445 0.58790 -0.05900
H 	H 	0.98457 0.17518 0.60892 0.05600
H 	H 	0.06971 0.09728 0.68684 0.06900
H 	H 	0.10093 0.14950 0.71978 0.06000
H 	H 	0.96414 0.12430 0.57147 0.05900
C 	C 	0.13183 0.15771 0.36173 0.11600
C 	C 	0.12435 0.12593 0.35989 -0.08500
C 	C 	0.12028 0.10989 0.39044 0.01300
C 	C 	0.12017 0.12470 0.42142 0.11700
C 	C 	0.12512 0.15652 0.42320 -0.08500
C 	C 	0.12864 0.17269 0.39275 0.01300
O 	O 	0.16263 0.17351 0.33638 -0.18400
C 	C 	0.17809 0.19920 0.35535 0.04400
C 	C 	0.15754 0.19892 0.38881 -0.05700
O 	O 	0.09485 0.10822 0.44785 -0.18200
C 	C 	0.07797 0.08251 0.42949 0.04900
C 	C 	0.09266 0.08324 0.39517 -0.06500
H 	H 	0.12492 0.11401 0.33566 0.06700
H 	H 	0.12495 0.16836 0.44747 0.06800
H 	H 	0.17733 0.21153 0.40925 0.05700
H 	H 	0.07083 0.07033 0.37572 0.05100
C 	C 	0.74743 0.86625 0.66074 0.11600
C 	C 	0.74620 0.89747 0.65320 -0.08500
C 	C 	0.75377 0.90577 0.61918 0.01300
C 	C 	0.76715 0.88433 0.59391 0.12200
C 	C 	0.76700 0.85303 0.60123 -0.08500
C 	C 	0.75842 0.84467 0.63526 0.01200
O 	O 	0.71787 0.85510 0.68942 -0.18100
C 	C 	0.71051 0.82506 0.67823 0.04300
C 	C 	0.73412 0.81863 0.64594 -0.05900
O 	O 	0.79843 0.89576 0.56581 -0.18300
C 	C 	0.80188 0.92618 0.57685 0.04500
C 	C 	0.77555 0.93227 0.60858 -0.05400
H 	H 	0.73705 0.91461 0.67295 0.06700
H 	H 	0.77545 0.83591 0.58140 0.06800
H 	H 	0.71934 0.80051 0.62950 0.05300
H 	H 	0.78718 0.95100 0.62511 0.05000
C 	C 	0.74961 0.13613 0.39459 0.12000
C 	C 	0.76029 0.12976 0.42850 -0.08600
C 	C 	0.76162 0.09902 0.43847 0.01900
C 	C 	0.75157 0.07557 0.41559 0.10200
C 	C 	0.73778 0.08242 0.38206 -0.08900
C 	C 	0.74162 0.11277 0.37178 0.01000
O 	O 	0.72910 0.16467 0.38390 -0.18500
C 	C 	0.70779 0.15579 0.35245 0.04500
C 	C 	0.71496 0.12499 0.34497 -0.05500
O 	O 	0.78052 0.04802 0.42341 -0.20300
C 	C 	0.81275 0.05751 0.45124 0.04100
C 	C 	0.80016 0.08756 0.46107 -0.05600
H 	H 	0.76828 0.14800 0.44643 0.07400
H 	H 	0.72978 0.06432 0.36395 0.05800
H 	H 	0.68873 0.11263 0.32693 0.05400
H 	H 	0.83042 0.10131 0.47548 0.06800
C 	C 	0.15458 0.84277 0.58746 0.11600
C 	C 	0.09445 0.85443 0.59181 -0.08500
C 	C 	0.08487 0.88618 0.59481 0.01000
C 	C 	0.13112 0.90586 0.58900 0.11900
C 	C 	0.19096 0.89450 0.58335 -0.09100
C 	C 	0.20171 0.86258 0.58278 0.01300
O 	O 	0.17252 0.81504 0.60128 -0.19000
C 	C 	0.23320 0.82087 0.60737 0.05000
C 	C 	0.25141 0.84869 0.59525 -0.06400
O 	O 	0.11167 0.93500 0.57957 -0.19100
C 	C 	0.04892 0.93072 0.58081 0.04300
C 	C 	0.03254 0.90162 0.58944 -0.05200
H 	H 	0.05721 0.83918 0.59567 0.06800
H 	H 	0.22801 0.90993 0.57990 0.06600
H 	H 	0.28920 0.86091 0.60504 0.04100
H 	H 	0.99058 0.89129 0.58257 0.06000
C 	C 	0.00812 0.87867 0.37572 0.11900
C 	C 	0.99736 0.86670 0.34344 -0.08800
C 	C 	0.99043 0.83504 0.33998 0.00900
C 	C 	0.98540 0.81665 0.36801 0.11500
C 	C 	0.99235 0.82904 0.40054 -0.09000
C 	C 	0.00817 0.85974 0.40342 0.00900
O 	O 	0.99669 0.90939 0.38392 -0.20100
C 	C 	0.98906 0.90699 0.41903 0.04500
C 	C 	0.99575 0.87762 0.43091 -0.05800
O 	O 	0.95182 0.79083 0.36278 -0.19900
C 	C 	0.93610 0.79573 0.32927 0.04800
C 	C 	0.95912 0.82190 0.31544 -0.05700
H 	H 	0.99006 0.88181 0.32235 0.06900
H 	H 	0.98136 0.81588 0.42283 0.06600
H 	H 	0.97613 0.86980 0.45467 0.06400
H 	H 	0.93915 0.83420 0.29469 0.06700
C 	C 	0.17443 0.66823 0.14629 0.11600
C 	C 	0.16498 0.66317 0.11177 -0.08800
C 	C 	0.16483 0.63281 0.10006 0.00700
C 	C 	0.18222 0.60881 0.11998 0.12200
C 	C 	0.19767 0.61407 0.15362 -0.08900
C 	C 	0.18815 0.64386 0.16695 0.01300
O 	O 	0.19189 0.69627 0.15881 -0.19300
C 	C 	0.21772 0.68628 0.18867 0.04300
C 	C 	0.21608 0.65521 0.19373 -0.05600
O 	O 	0.20012 0.58240 0.10186 -0.18900
C 	C 	0.19081 0.59289 0.06899 0.02500
C 	C 	0.17315 0.62351 0.06781 -0.05500
H 	H 	0.16131 0.68211 0.09450 0.06400
H 	H 	0.21836 0.59603 0.16833 0.07200
H 	H 	0.24652 0.64227 0.20961 0.06200
H 	H 	0.15258 0.63464 0.04648 0.04100
C 	C 	0.19807 0.38530 0.17122 0.11400
C 	C 	0.14958 0.40308 0.15883 -0.08500
C 	C 	0.14853 0.40777 0.12380 0.01200
C 	C 	0.19551 0.39743 0.10219 0.11600
C 	C 	0.24501 0.38069 0.11465 -0.08600
C 	C 	0.24593 0.37556 0.14959 0.01500
O 	O 	0.19148 0.36762 0.20005 -0.18300
C 	C 	0.23889 0.34611 0.19310 0.04400
C 	C 	0.27175 0.35079 0.16342 -0.06200
O 	O 	0.19910 0.41289 0.07181 -0.18800
C 	C 	0.15096 0.43419 0.07788 0.05000
C 	C 	0.12022 0.43126 0.10864 -0.06600
H 	H 	0.11237 0.41136 0.17558 0.06900
H 	H 	0.28214 0.37246 0.09781 0.06800
H 	H 	0.29933 0.33342 0.14962 0.05300
H 	H 	0.09120 0.44879 0.12120 0.06300
C 	C 	0.18840 0.39339 0.83837 0.12100
C 	C 	0.17469 0.42422 0.83246 -0.08700
C 	C 	0.20053 0.44626 0.85322 0.01200
C 	C 	0.24161 0.43778 0.87761 0.11300
C 	C 	0.25871 0.40680 0.88125 -0.08700
C 	C 	0.22717 0.38510 0.86328 0.00900
O 	O 	0.17867 0.37032 0.81500 -0.18000
C 	C 	0.21564 0.34733 0.82873 0.04600
C 	C 	0.24525 0.35598 0.85732 -0.05400
O 	O 	0.24019 0.45755 0.90533 -0.19100
C 	C 	0.18925 0.47585 0.89802 0.04200
C 	C 	0.16852 0.47078 0.86591 -0.05800
H 	H 	0.14253 0.43084 0.81353 0.07200
H 	H 	0.29084 0.39985 0.90007 0.06800
H 	H 	0.28690 0.34526 0.86602 0.05100
H 	H 	0.12269 0.47687 0.85855 0.06900
C 	C 	0.88073 0.65272 0.12461 0.11900
C 	C 	0.87745 0.63967 0.09219 -0.08800
C 	C 	0.89493 0.60867 0.08761 0.01500
C 	C 	0.91724 0.59156 0.11384 0.11600
C 	C 	0.91949 0.60457 0.14642 -0.08300
C 	C 	0.90353 0.63575 0.15070 0.01100
O 	O 	0.84432 0.67785 0.13526 -0.19000
C 	C 	0.84677 0.67399 0.17027 0.04300
C 	C 	0.88190 0.64897 0.17972 -0.05500
O 	O 	0.95628 0.56739 0.10320 -0.18100
C 	C 	0.95764 0.57249 0.06833 0.04300
C 	C 	0.92041 0.59669 0.05882 -0.06200
H 	H 	0.86070 0.65303 0.07137 0.06600
H 	H 	0.93645 0.59130 0.16725 0.07000
H 	H 	0.87615 0.63715 0.20351 0.06400
H 	H 	0.92718 0.60942 0.03570 0.05200
C 	C 	0.88376 0.60960 0.88202 0.11400
C 	C 	0.86233 0.61851 0.85043 -0.08400
C 	C 	0.82505 0.64515 0.84959 0.00700
C 	C 	0.81758 0.66461 0.87703 0.12400
C 	C 	0.84392 0.65728 0.90773 -0.09400
C 	C 	0.87238 0.62824 0.91023 0.01300
O 	O 	0.93229 0.58872 0.88521 -0.18300
C 	C 	0.94937 0.59712 0.91773 0.04000
C 	C 	0.91405 0.62056 0.93271 -0.06100
O 	O 	0.79782 0.69397 0.86912 -0.20300
C 	C 	0.79205 0.68996 0.83412 0.04400
C 	C 	0.81204 0.66130 0.82205 -0.05400
H 	H 	0.87633 0.60600 0.82743 0.06900
H 	H 	0.84398 0.67383 0.92838 0.06400
H 	H 	0.92660 0.63452 0.95405 0.04900
H 	H 	0.80069 0.65132 0.79792 0.06400
C 	C 	0.87410 0.41986 0.88549 0.11300
C 	C 	0.85861 0.40601 0.85483 -0.08400
C 	C 	0.83386 0.37684 0.85613 0.00700
C 	C 	0.83397 0.36005 0.88545 0.11700
C 	C 	0.85520 0.37283 0.91539 -0.09200
C 	C 	0.87037 0.40372 0.91524 0.01300
O 	O 	0.91257 0.44440 0.88668 -0.18100
C 	C 	0.93197 0.44098 0.91977 0.04800
C 	C 	0.90771 0.41678 0.93686 -0.07000
O 	O 	0.83318 0.32862 0.87994 -0.20000
C 	C 	0.83326 0.32817 0.84454 0.04400
C 	C 	0.83408 0.35674 0.83007 -0.05600
H 	H 	0.86835 0.41684 0.83085 0.06800
H 	H 	0.86262 0.35880 0.93735 0.06300
H 	H 	0.92784 0.40561 0.95829 0.03600
H 	H 	0.85087 0.36122 0.80455 0.06200
C 	C 	0.58366 0.15598 0.42560 0.12200
C 	C 	0.55597 0.18537 0.42668 -0.08200
C 	C 	0.53501 0.19759 0.39637 0.00900
C 	C 	0.53399 0.17986 0.36717 0.07800
C 	C 	0.55749 0.14972 0.36686 -0.08100
C 	C 	0.58596 0.13907 0.39579 0.01400
O 	O 	0.58825 0.13834 0.45444 -0.18100
C 	C 	0.59185 0.10936 0.43906 0.04600
C 	C 	0.59088 0.10959 0.40424 -0.06300
O 	O 	0.48974 0.18923 0.34507 -0.22300
C 	C 	0.46301 0.21352 0.36415 0.02600
C 	C 	0.48969 0.21885 0.39463 -0.07100
H 	H 	0.54693 0.19727 0.45067 0.07100
H 	H 	0.55042 0.13452 0.34559 0.05900
H 	H 	0.57749 0.09067 0.38850 0.04400
H 	H 	0.46689 0.23014 0.41640 0.06000
C 	C 	0.66434 0.83367 0.38143 0.12000
C 	C 	0.68920 0.84976 0.40824 -0.08500
C 	C 	0.69810 0.88112 0.40448 0.01500
C 	C 	0.67765 0.89666 0.37679 0.12000
C 	C 	0.65258 0.88070 0.34998 -0.08500
C 	C 	0.64543 0.84908 0.35317 0.01500
O 	O 	0.67920 0.80296 0.37528 -0.19200
C 	C 	0.67202 0.80183 0.34030 0.04500
C 	C 	0.65023 0.82901 0.32713 -0.05800
O 	O 	0.66435 0.92754 0.38306 -0.19200
C 	C 	0.67745 0.92888 0.41744 0.05000
C 	C 	0.69833 0.90135 0.43023 -0.05600
H 	H 	0.70412 0.83790 0.43053 0.07000
H 	H 	0.63783 0.89261 0.32769 0.06900
H 	H 	0.65689 0.83547 0.30088 0.05800
H 	H 	0.69462 0.89524 0.45672 0.07000
C 	C 	0.84299 0.08605 0.66147 0.11200
C 	C 	0.80781 0.06027 0.65725 -0.08600
C 	C 	0.79285 0.05166 0.62426 -0.01600
C 	C 	0.80577 0.06999 0.59688 0.09400
C 	C 	0.83812 0.09666 0.60142 -0.08800
C 	C 	0.85940 0.10319 0.63371 0.01200
O 	O 	0.84278 0.10216 0.69212 -0.18000
C 	C 	0.85894 0.13067 0.67994 0.04500
C 	C 	0.86891 0.13149 0.64534 -0.06100
O 	O 	0.76596 0.06702 0.57058 -0.19100
C 	C 	0.72682 0.04612 0.58520 0.03600
C 	C 	0.74280 0.03658 0.61692 -0.05800
H 	H 	0.78836 0.04894 0.67910 0.06600
H 	H 	0.84219 0.11301 0.58119 0.06800
H 	H 	0.86568 0.15199 0.63031 0.05100
H 	H 	0.71158 0.02734 0.63566 0.05300
C 	C 	0.58342 0.87581 0.61105 0.11600
C 	C 	0.54857 0.84973 0.61000 -0.08400
C 	C 	0.50531 0.84539 0.63635 0.00400
C 	C 	0.49686 0.86642 0.66276 0.11000
C 	C 	0.53037 0.89304 0.66291 -0.08700
C 	C 	0.57631 0.89611 0.63793 0.01300
O 	O 	0.60914 0.88822 0.58201 -0.18200
C 	C 	0.61560 0.91809 0.59396 0.03400
C 	C 	0.59673 0.92288 0.62732 -0.06000
O 	O 	0.47718 0.85361 0.69287 -0.18700
C 	C 	0.48218 0.82273 0.68359 0.01600
C 	C 	0.49448 0.81785 0.64936 -0.05800
H 	H 	0.55517 0.83319 0.58942 0.06500
H 	H 	0.52417 0.90961 0.68349 0.06500
H 	H 	0.58190 0.94492 0.63817 0.02500
H 	H 	0.51443 0.79665 0.63870 0.03900
C 	C 	0.39489 0.10984 0.63619 0.11800
C 	C 	0.34832 0.11352 0.66119 -0.08800
C 	C 	0.29990 0.13433 0.65529 0.01300
C 	C 	0.29864 0.15153 0.62620 0.11600
C 	C 	0.34491 0.14734 0.60099 -0.08600
C 	C 	0.39427 0.12745 0.60759 0.01200
O 	O 	0.43164 0.08340 0.63286 -0.19100
C 	C 	0.45265 0.08699 0.59937 0.04800
C 	C 	0.43064 0.11304 0.58404 -0.05400
O 	O 	0.26538 0.17899 0.63011 -0.18500
C 	C 	0.24928 0.17738 0.66458 0.04500
C 	C 	0.26888 0.15067 0.67967 -0.06000
H 	H 	0.34930 0.10035 0.68419 0.06600
H 	H 	0.34432 0.16061 0.57805 0.06900
H 	H 	0.42812 0.11602 0.55692 0.05700
H 	H 	0.27560 0.14825 0.70657 0.05900
C 	C 	0.38268 0.91947 0.45069 0.11800
C 	C 	0.37770 0.88774 0.44638 -0.08700
C 	C 	0.37259 0.87625 0.41339 0.01300
C 	C 	0.36598 0.89508 0.38625 0.11600
C 	C 	0.36808 0.92686 0.39051 -0.08600
C 	C 	0.37587 0.93864 0.42337 0.00800
O 	O 	0.41670 0.93161 0.47623 -0.18800
C 	C 	0.43201 0.95919 0.46126 0.04100
C 	C 	0.40693 0.96379 0.43007 -0.05400
O 	O 	0.34129 0.88115 0.35829 -0.18300
C 	C 	0.33314 0.85203 0.37177 0.04200
C 	C 	0.35147 0.84907 0.40470 -0.05800
H 	H 	0.38264 0.87250 0.46755 0.06700
H 	H 	0.36439 0.94187 0.36905 0.06600
H 	H 	0.42591 0.97840 0.41073 0.05000
H 	H 	0.33977 0.83089 0.42185 0.04800
C 	C 	0.31310 0.63416 0.91230 0.10900
C 	C 	0.29713 0.66315 0.89979 -0.08800
C 	C 	0.30631 0.66782 0.86486 0.00400
C 	C 	0.33296 0.64547 0.84375 0.11400
C 	C 	0.34858 0.61656 0.85632 -0.09000
C 	C 	0.33931 0.61194 0.89109 0.01500
O 	O 	0.28953 0.62307 0.94267 -0.20100
C 	C 	0.30405 0.59181 0.93728 0.03600
C 	C 	0.33142 0.58503 0.90587 -0.06200
O 	O 	0.35906 0.65654 0.81412 -0.19900
C 	C 	0.34554 0.68781 0.81937 0.04300
C 	C 	0.31595 0.69480 0.85015 -0.05800
H 	H 	0.27771 0.68110 0.91643 0.06100
H 	H 	0.36936 0.59880 0.83989 0.06800
H 	H 	0.35674 0.56402 0.89902 0.06600
H 	H 	0.29279 0.71635 0.85715 0.06100
C 	C 	0.38503 0.41219 0.14335 0.11700
C 	C 	0.37686 0.41039 0.17864 -0.08500
C 	C 	0.40639 0.38599 0.19513 0.01200
C 	C 	0.44206 0.36420 0.17726 0.11500
C 	C 	0.45038 0.36640 0.14202 -0.08900
C 	C 	0.41810 0.38964 0.12559 0.00900
O 	O 	0.37701 0.43931 0.12566 -0.17700
C 	C 	0.40864 0.43039 0.09553 0.04900
C 	C 	0.43346 0.40099 0.09537 -0.05500
O 	O 	0.44656 0.33622 0.19327 -0.19100
C 	C 	0.40727 0.34244 0.22128 0.05000
C 	C 	0.38384 0.37224 0.22289 -0.05800
H 	H 	0.34848 0.42722 0.19273 0.07200
H 	H 	0.47821 0.34946 0.12775 0.06500
H 	H 	0.47136 0.39266 0.07910 0.05000
H 	H 	0.34137 0.37922 0.23600 0.06500
C 	C 	0.43445 0.62351 0.16453 0.11700
C 	C 	0.45020 0.65351 0.17256 -0.08900
C 	C 	0.49143 0.65778 0.19838 0.00500
C 	C 	0.52263 0.63332 0.21220 0.11900
C 	C 	0.51043 0.60333 0.20213 -0.08500
C 	C 	0.46269 0.59903 0.18005 0.01100
O 	O 	0.40982 0.61605 0.13373 -0.20000
C 	C 	0.42694 0.58497 0.13184 0.04800
C 	C 	0.45847 0.57461 0.15928 -0.05500
O 	O 	0.57800 0.64077 0.22541 -0.18200
C 	C 	0.57750 0.67185 0.21759 0.04700
C 	C 	0.52633 0.68221 0.20143 -0.06400
H 	H 	0.43402 0.67257 0.15770 0.05300
H 	H 	0.53959 0.58425 0.20946 0.07200
H 	H 	0.48985 0.55492 0.15858 0.06500
H 	H 	0.52401 0.70222 0.18558 0.04800
C 	C 	0.57891 0.41379 0.12698 0.11500
C 	C 	0.58273 0.40165 0.15957 -0.08600
C 	C 	0.61273 0.37297 0.16229 0.01100
C 	C 	0.64553 0.35952 0.13555 0.11900
C 	C 	0.64693 0.37331 0.10380 -0.09000
C 	C 	0.60898 0.39930 0.09986 0.00500
O 	O 	0.56074 0.44390 0.12093 -0.18400
C 	C 	0.58237 0.44577 0.08719 0.04000
C 	C 	0.61426 0.41973 0.07534 -0.05900
O 	O 	0.68749 0.33710 0.14477 -0.19600
C 	C 	0.67503 0.33759 0.17984 0.04500
C 	C 	0.63305 0.36045 0.19061 -0.05600
H 	H 	0.56417 0.41413 0.18168 0.07100
H 	H 	0.67744 0.36471 0.08346 0.06300
H 	H 	0.62582 0.41419 0.04902 0.04900
H 	H 	0.60825 0.36124 0.21482 0.06800
C 	C 	0.50744 0.61826 0.89711 0.11800
C 	C 	0.51847 0.61972 0.86208 -0.08800
C 	C 	0.50134 0.64677 0.84563 0.01700
C 	C 	0.47452 0.67149 0.86341 0.12200
C 	C 	0.46122 0.66933 0.89827 -0.08800
C 	C 	0.48191 0.64307 0.91479 0.01100
O 	O 	0.50308 0.59079 0.91399 -0.18700
C 	C 	0.47224 0.60173 0.94351 0.04400
C 	C 	0.45901 0.63279 0.94418 -0.05800
O 	O 	0.48531 0.69943 0.84863 -0.18600
C 	C 	0.52465 0.68956 0.82184 0.04700
C 	C 	0.53286 0.65815 0.81925 -0.05300
H 	H 	0.53984 0.60051 0.84809 0.06900
H 	H 	0.43951 0.68839 0.91237 0.06700
H 	H 	0.42231 0.64400 0.95922 0.05400
H 	H 	0.57217 0.64654 0.80691 0.06600
C 	C 	0.38273 0.38392 0.82635 0.11500
C 	C 	0.38111 0.41566 0.83203 -0.08600
C 	C 	0.41891 0.42725 0.85685 0.00700
C 	C 	0.45547 0.40802 0.87563 0.12000
C 	C 	0.45731 0.37633 0.86926 -0.09000
C 	C 	0.41803 0.36502 0.84541 0.00500
O 	O 	0.36095 0.36998 0.79759 -0.18300
C 	C 	0.38696 0.34051 0.80163 0.04000
C 	C 	0.42315 0.33785 0.82947 -0.05900
O 	O 	0.46906 0.42011 0.90700 -0.21100
C 	C 	0.43572 0.44785 0.90594 0.04000
C 	C 	0.40579 0.45242 0.87615 -0.05300
H 	H 	0.35102 0.43065 0.81817 0.06900
H 	H 	0.48532 0.36101 0.88396 0.06100
H 	H 	0.43884 0.31667 0.84067 0.04900
H 	H 	0.36565 0.46722 0.87382 0.06300
C 	C 	0.12463 0.39001 0.36860 0.11700
C 	C 	0.11685 0.42177 0.37209 -0.08700
C 	C 	0.09761 0.43401 0.40388 0.01000
C 	C 	0.08481 0.41528 0.43097 0.11600
C 	C 	0.09554 0.38354 0.42775 -0.08800
C 	C 	0.11243 0.37143 0.39565 0.01100
O 	O 	0.16216 0.37630 0.34340 -0.18400
C 	C 	0.17206 0.34790 0.35837 0.04300
C 	C 	0.14288 0.34472 0.38955 -0.06000
O 	O 	0.04114 0.42772 0.45387 -0.19200
C 	C 	0.02684 0.45491 0.43729 0.04200
C 	C 	0.06136 0.45917 0.40800 -0.05700
H 	H 	0.12559 0.43650 0.35078 0.06900
H 	H 	0.08649 0.36868 0.44891 0.06600
H 	H 	0.15681 0.32874 0.40876 0.04800
H 	H 	0.04711 0.47351 0.38734 0.05900
C 	C 	0.69755 0.63509 0.63780 0.11600
C 	C 	0.70576 0.60419 0.62872 -0.08800
C 	C 	0.71768 0.59698 0.59433 0.01400
C 	C 	0.73394 0.61921 0.57153 0.12400
C 	C 	0.73107 0.65015 0.58161 -0.08400
C 	C 	0.70683 0.65732 0.61418 0.01200
O 	O 	0.69553 0.64564 0.67114 -0.18900
C 	C 	0.70476 0.67660 0.66510 0.04100
C 	C 	0.71250 0.68355 0.63125 -0.06700
O 	O 	0.77111 0.60826 0.54453 -0.17800
C 	C 	0.77516 0.57741 0.55331 0.04500
C 	C 	0.74334 0.57058 0.58281 -0.06100
H 	H 	0.70390 0.58655 0.64766 0.06100
H 	H 	0.74917 0.66761 0.56532 0.07000
H 	H 	0.72875 0.70476 0.62106 0.05500
H 	H 	0.75380 0.55115 0.59862 0.04500
C 	C 	0.08348 0.61941 0.57589 0.11600
C 	C 	0.12276 0.64382 0.57344 -0.08500
C 	C 	0.16540 0.64711 0.59870 0.01000
C 	C 	0.16764 0.62753 0.62589 0.12000
C 	C 	0.12879 0.60289 0.62786 -0.09000
C 	C 	0.08484 0.60045 0.60336 0.01500
O 	O 	0.05597 0.60706 0.54799 -0.17700
C 	C 	0.04170 0.57868 0.56145 0.04600
C 	C 	0.05850 0.57467 0.59439 -0.06200
O 	O 	0.19102 0.64044 0.65467 -0.19500
C 	C 	0.20047 0.66979 0.64262 0.04500
C 	C 	0.18589 0.67401 0.60931 -0.05200
H 	H 	0.12083 0.65938 0.55239 0.07000
H 	H 	0.13020 0.58740 0.64900 0.06600
H 	H 	0.06261 0.55293 0.60709 0.04100
H 	H 	0.17417 0.69596 0.59841 0.06300
C 	C 	0.85852 0.38859 0.62073 0.11800
C 	C 	0.86315 0.37873 0.65415 -0.09000
C 	C 	0.88312 0.34846 0.65901 0.01400
C 	C 	0.90623 0.33023 0.63276 0.11300
C 	C 	0.90757 0.34118 0.59951 -0.09000
C 	C 	0.87821 0.36964 0.59400 0.00900
O 	O 	0.85334 0.41924 0.61257 -0.19700
C 	C 	0.87242 0.41689 0.57849 0.04400
C 	C 	0.88772 0.38754 0.56713 -0.05300
O 	O 	0.94143 0.30529 0.64295 -0.19900
C 	C 	0.93609 0.31023 0.67815 0.03500
C 	C 	0.90424 0.33702 0.68761 -0.05900
H 	H 	0.85360 0.39432 0.67537 0.06700
H 	H 	0.93150 0.32846 0.57910 0.06500
H 	H 	0.91716 0.38170 0.54525 0.05900
H 	H 	0.88466 0.34225 0.71268 0.06500
C 	C 	0.06477 0.60395 0.38967 0.12000
C 	C 	0.11498 0.62213 0.39473 -0.08800
C 	C 	0.12539 0.64566 0.37178 0.01400
C 	C 	0.08363 0.65402 0.34839 0.11700
C 	C 	0.03013 0.63781 0.34551 -0.08600
C 	C 	0.02471 0.61103 0.36452 0.00900
O 	O 	0.04066 0.58578 0.41496 -0.19000
C 	C 	0.98254 0.58265 0.40255 0.04200
C 	C 	0.97223 0.59776 0.37276 -0.05600
O 	O 	0.09056 0.68325 0.33591 -0.19000
C 	C 	0.14177 0.69136 0.35376 0.04500
C 	C 	0.16031 0.66960 0.37672 -0.05800
H 	H 	0.14282 0.61901 0.41657 0.07100
H 	H 	0.99369 0.64616 0.32999 0.06000
H 	H 	0.92788 0.60509 0.36422 0.05700
H 	H 	0.20439 0.66829 0.38809 0.06200
C 	C 	0.72064 0.40576 0.38149 0.12200
C 	C 	0.69425 0.39521 0.35203 -0.09100
C 	C 	0.65866 0.36924 0.35443 0.01200
C 	C 	0.65127 0.35385 0.38466 0.12100
C 	C 	0.67647 0.36521 0.41426 -0.08100
C 	C 	0.71279 0.39071 0.41135 0.01300
O 	O 	0.74277 0.43488 0.38505 -0.19600
C 	C 	0.74741 0.43567 0.42038 0.04300
C 	C 	0.72682 0.40981 0.43633 -0.05200
O 	O 	0.63948 0.32308 0.38052 -0.18200
C 	C 	0.64296 0.32128 0.34518 0.04500
C 	C 	0.65357 0.34858 0.32941 -0.05500
H 	H 	0.70142 0.40661 0.32812 0.06600
H 	H 	0.67057 0.35364 0.43815 0.07900
H 	H 	0.73636 0.40309 0.46195 0.06800
H 	H 	0.67241 0.35070 0.30385 0.06300
C 	C 	0.47902 0.61951 0.40697 0.12000
C 	C 	0.47840 0.65100 0.40087 -0.08600
C 	C 	0.46233 0.66095 0.36862 0.01200
C 	C 	0.43830 0.64122 0.34543 0.11700
C 	C 	0.43418 0.61003 0.35283 -0.08400
C 	C 	0.45936 0.59953 0.38286 0.01000
O 	O 	0.47985 0.60763 0.43940 -0.17800
C 	C 	0.45899 0.57843 0.43239 0.04300
C 	C 	0.44423 0.57399 0.39899 -0.05600
O 	O 	0.40061 0.65564 0.32259 -0.18400
C 	C 	0.40358 0.68576 0.33458 0.04000
C 	C 	0.44017 0.68913 0.36197 -0.05700
H 	H 	0.48697 0.66720 0.42099 0.07000
H 	H 	0.40898 0.59503 0.33691 0.06800
H 	H 	0.43710 0.55213 0.38682 0.04800
H 	H 	0.43541 0.70773 0.38041 0.05500
C 	C 	0.72060 0.36784 0.60553 0.11800
C 	C 	0.73478 0.33636 0.60603 -0.08500
C 	C 	0.73139 0.32160 0.63734 0.01200
C 	C 	0.71892 0.33758 0.66726 0.11600
C 	C 	0.70455 0.36909 0.66676 -0.08800
C 	C 	0.70763 0.38383 0.63537 0.01500
O 	O 	0.69955 0.38239 0.57691 -0.17900
C 	C 	0.67140 0.40829 0.59267 0.05000
C 	C 	0.67587 0.40935 0.62750 -0.06200
O 	O 	0.74085 0.32304 0.69575 -0.18800
C 	C 	0.76799 0.29698 0.67976 0.04600
C 	C 	0.76289 0.29601 0.64501 -0.05500
H 	H 	0.74630 0.32369 0.58279 0.07100
H 	H 	0.69388 0.38185 0.69003 0.06600
H 	H 	0.64523 0.42231 0.64484 0.05000
H 	H 	0.79319 0.28300 0.62752 0.05900
C 	C 	0.26760 0.39217 0.63660 0.11300
C 	C 	0.30437 0.41776 0.63748 -0.08300
C 	C 	0.34905 0.42023 0.61168 0.00700
C 	C 	0.35512 0.39996 0.58514 0.12100
C 	C 	0.31740 0.37497 0.58327 -0.09000
C 	C 	0.27272 0.37186 0.60928 0.01300
O 	O 	0.24388 0.37949 0.66606 -0.18200
C 	C 	0.23701 0.34958 0.65428 0.04500
C 	C 	0.25348 0.34491 0.62049 -0.06400
O 	O 	0.39124 0.40978 0.55822 -0.18400
C 	C 	0.40651 0.43826 0.57171 0.03900
C 	C 	0.37903 0.44516 0.60316 -0.05500
H 	H 	0.30100 0.43381 0.65864 0.06700
H 	H 	0.32318 0.35830 0.56277 0.06800
H 	H 	0.26753 0.32291 0.60926 0.06000
H 	H 	0.39343 0.46234 0.62089 0.05100
C 	C 	0.78164 0.58994 0.35690 0.11000
C 	C 	0.75533 0.56139 0.36064 -0.08000
C 	C 	0.74630 0.55024 0.39355 -0.02900
C 	C 	0.75424 0.56851 0.42171 0.10400
C 	C 	0.77636 0.59796 0.41788 -0.07900
C 	C 	0.79412 0.60718 0.38522 0.02000
O 	O 	0.77574 0.60697 0.32763 -0.18200
C 	C 	0.78477 0.63602 0.34128 0.04500
C 	C 	0.79579 0.63638 0.37544 -0.06900
O 	O 	0.71931 0.56059 0.45001 -0.19100
C 	C 	0.68859 0.53634 0.43599 0.02800
C 	C 	0.70449 0.52994 0.40244 -0.06800
H 	H 	0.73867 0.54934 0.33890 0.06400
H 	H 	0.77617 0.61374 0.43927 0.07700
H 	H 	0.78809 0.65607 0.39220 0.05300
H 	H 	0.67592 0.51847 0.38483 0.05600
C 	C 	0.56067 0.63344 0.61078 0.11300
C 	C 	0.53816 0.66376 0.61018 -0.08300
C 	C 	0.51601 0.67748 0.64076 -0.00800
C 	C 	0.51008 0.66065 0.67005 0.11400
C 	C 	0.52940 0.62977 0.67000 -0.08400
C 	C 	0.55773 0.61724 0.64045 0.01700
O 	O 	0.56618 0.61515 0.58174 -0.18000
C 	C 	0.56475 0.58652 0.59693 0.04700
C 	C 	0.55946 0.58748 0.63179 -0.06700
O 	O 	0.46407 0.67174 0.69227 -0.19700
C 	C 	0.44049 0.69553 0.67296 0.03300
C 	C 	0.47202 0.69961 0.64264 -0.07400
H 	H 	0.53344 0.67539 0.58633 0.06600
H 	H 	0.51810 0.61544 0.69130 0.06800
H 	H 	0.54205 0.56938 0.64745 0.05000
H 	H 	0.45246 0.71029 0.62073 0.06000
C 	C 	0.47483 0.35259 0.33612 0.11700
C 	C 	0.49398 0.38209 0.34356 -0.08900
C 	C 	0.49657 0.39101 0.37770 0.01200
C 	C 	0.48939 0.37028 0.40339 0.11200
C 	C 	0.47498 0.34010 0.39581 -0.08700
C 	C 	0.46366 0.33242 0.36204 0.00300
O 	O 	0.48879 0.33838 0.30503 -0.18300
C 	C 	0.48730 0.30787 0.31491 0.03700
C 	C 	0.47196 0.30416 0.34873 -0.07600
O 	O 	0.51804 0.37809 0.43291 -0.18200
C 	C 	0.54422 0.40506 0.42213 0.03500
C 	C 	0.53150 0.41299 0.38942 -0.08000
H 	H 	0.51064 0.39664 0.32355 0.06700
H 	H 	0.47693 0.32272 0.41506 0.06700
H 	H 	0.48594 0.28441 0.36320 0.05600
H 	H 	0.55739 0.42852 0.37394 0.04900
