data_crystal

_cell_length_a 24.18189
_cell_length_b 19.30140
_cell_length_c 46.69440
_cell_angle_alpha 89.86271
_cell_angle_beta  89.86542
_cell_angle_gamma 119.44869

_symmetry_space_group_name_	'P 1'
_symmetry_space_group_name_H-M	'P 1'

loop_
_symmetry_equiv_pos_as_xyz
  x,y,z

loop_
_atom_site_label
_atom_site_type_symbol
_atom_site_fract_x
_atom_site_fract_y
_atom_site_fract_z
_atom_site_charge
C 	C 	0.61240 0.26036 0.88351 0.29800
C 	C 	0.79534 0.57884 0.92228 0.32500
C 	C 	0.79446 0.36845 0.88196 0.32500
C 	C 	0.61213 0.46703 0.92533 0.28900
C 	C 	0.79461 0.39801 0.97757 0.32600
C 	C 	0.62091 0.27441 0.97904 0.29900
Ni	Ni	0.70488 0.43354 0.89080 1.12000
Ni	Ni	0.70550 0.44660 0.95990 1.13400
Ni	Ni	0.70820 0.29845 0.93110 1.13800
O 	O 	0.62439 0.33332 0.87692 -0.35500
O 	O 	0.65740 0.24686 0.89433 -0.33700
O 	O 	0.79044 0.45654 0.96585 -0.35900
O 	O 	0.79149 0.52789 0.90291 -0.35100
O 	O 	0.75078 0.55746 0.94189 -0.31600
O 	O 	0.63048 0.24293 0.95559 -0.32100
O 	O 	0.75339 0.38427 0.86933 -0.35100
O 	O 	0.79166 0.35620 0.90964 -0.33200
O 	O 	0.65967 0.35002 0.98664 -0.31500
O 	O 	0.65454 0.49155 0.90401 -0.30900
O 	O 	0.62482 0.44851 0.95098 -0.31000
O 	O 	0.75967 0.32511 0.96782 -0.26900
O 	O 	0.68993 0.38318 0.92672 -0.71900
H 	H 	0.64317 0.35323 0.92726 0.16300
C 	C 	0.70291 0.55036 0.54085 0.29000
C 	C 	0.81404 0.35757 0.58316 0.33000
C 	C 	0.86968 0.59062 0.53812 0.33100
C 	C 	0.64318 0.33216 0.59138 0.31800
C 	C 	0.80252 0.35630 0.49470 0.32100
C 	C 	0.62951 0.32341 0.49649 0.30600
Ni	Ni	0.76729 0.47502 0.57521 1.12200
Ni	Ni	0.70895 0.30737 0.54100 1.13100
Ni	Ni	0.75688 0.46949 0.50536 1.14500
O 	O 	0.74700 0.56282 0.56031 -0.34900
O 	O 	0.70316 0.52053 0.51514 -0.27900
O 	O 	0.74540 0.30187 0.50284 -0.33900
O 	O 	0.79126 0.39830 0.59635 -0.34500
O 	O 	0.79139 0.32369 0.55835 -0.36300
O 	O 	0.68402 0.37717 0.48458 -0.27500
O 	O 	0.85649 0.53394 0.55674 -0.35300
O 	O 	0.83194 0.57748 0.51612 -0.32700
O 	O 	0.62903 0.28545 0.52045 -0.34400
O 	O 	0.67913 0.41004 0.59483 -0.32500
O 	O 	0.66699 0.28871 0.58052 -0.34400
O 	O 	0.81901 0.43229 0.49535 -0.30700
O 	O 	0.73259 0.41686 0.54174 -0.72300
H 	H 	0.68970 0.41021 0.54327 0.18400
C 	C 	0.24386 0.15125 0.77630 0.30300
C 	C 	0.03927 0.96907 0.69384 0.32300
C 	C 	0.23523 0.16178 0.69544 0.32900
C 	C 	0.04287 0.95133 0.77717 0.30600
C 	C 	0.07901 0.21467 0.70281 0.32500
C 	C 	0.07224 0.19791 0.78306 0.30800
Ni	Ni	0.14807 0.03177 0.73442 1.12000
Ni	Ni	0.03277 0.07114 0.73968 1.12900
Ni	Ni	0.17564 0.21410 0.74084 1.13000
O 	O 	0.23491 0.10207 0.75478 -0.35500
O 	O 	0.22478 0.20534 0.77477 -0.33900
O 	O 	0.03633 0.16841 0.72178 -0.36200
O 	O 	0.06871 0.94824 0.71257 -0.35800
O 	O 	0.02669 0.02666 0.69959 -0.34900
O 	O 	0.12223 0.24510 0.76643 -0.35100
O 	O 	0.18548 0.09041 0.69607 -0.36000
O 	O 	0.24518 0.21258 0.71627 -0.34300
O 	O 	0.03565 0.12065 0.77778 -0.35800
O 	O 	0.10151 0.96713 0.77088 -0.35500
O 	O 	0.00765 0.96318 0.75804 -0.34800
O 	O 	0.13830 0.22992 0.70449 -0.35600
O 	O 	0.11986 0.10316 0.74453 -0.72000
H 	H 	0.12099 0.09959 0.76553 0.15900
C 	C 	0.19748 0.70204 0.42380 0.30800
C 	C 	0.40149 0.68779 0.49116 0.31300
C 	C 	0.36919 0.83156 0.42796 0.31900
C 	C 	0.22145 0.53770 0.49321 0.29800
C 	C 	0.40862 0.64816 0.40097 0.33200
C 	C 	0.22978 0.48987 0.40183 0.30900
Ni	Ni	0.29074 0.70452 0.47045 1.13400
Ni	Ni	0.32077 0.56556 0.44907 1.13000
Ni	Ni	0.29702 0.66930 0.40287 1.13300
O 	O 	0.22733 0.73187 0.44859 -0.32600
O 	O 	0.20880 0.65352 0.40796 -0.34500
O 	O 	0.37361 0.57916 0.41374 -0.34900
O 	O 	0.35190 0.69368 0.49923 -0.26400
O 	O 	0.40081 0.65261 0.46702 -0.35100
O 	O 	0.26474 0.55728 0.38727 -0.34200
O 	O 	0.36899 0.80361 0.45358 -0.30100
O 	O 	0.32673 0.78698 0.40890 -0.34700
O 	O 	0.24616 0.47962 0.42804 -0.36200
O 	O 	0.21974 0.60526 0.49123 -0.28900
O 	O 	0.27442 0.53515 0.48774 -0.31600
O 	O 	0.38858 0.69985 0.39859 -0.33800
O 	O 	0.28856 0.63579 0.44152 -0.71900
H 	H 	0.24285 0.59696 0.44194 0.16100
C 	C 	0.29453 0.50584 0.03587 0.29700
C 	C 	0.18567 0.52070 0.14956 0.32900
C 	C 	0.13024 0.40545 0.06336 0.32000
C 	C 	0.35898 0.62084 0.12529 0.30400
C 	C 	0.13368 0.62164 0.08260 0.30500
C 	C 	0.30579 0.75473 0.05912 0.30200
Ni	Ni	0.24446 0.48510 0.09879 1.12200
Ni	Ni	0.25296 0.65508 0.11029 1.13900
Ni	Ni	0.21313 0.57726 0.04830 1.14100
O 	O 	0.26797 0.45701 0.05832 -0.33000
O 	O 	0.28482 0.56673 0.03051 -0.30900
O 	O 	0.18721 0.67815 0.09316 -0.28700
O 	O 	0.22068 0.48918 0.14177 -0.33700
O 	O 	0.17965 0.57047 0.13276 -0.37800
O 	O 	0.25899 0.69892 0.04319 -0.30300
O 	O 	0.14893 0.42490 0.08968 -0.35700
O 	O 	0.16003 0.45645 0.04249 -0.29400
O 	O 	0.31871 0.73990 0.08525 -0.31400
O 	O 	0.33762 0.55157 0.11210 -0.33700
O 	O 	0.31924 0.64507 0.13489 -0.33600
O 	O 	0.13364 0.57218 0.06336 -0.33600
O 	O 	0.25211 0.58009 0.08405 -0.72200
H 	H 	0.29703 0.60763 0.07807 0.17200
C 	C 	0.78971 0.81361 0.27548 0.30800
C 	C 	0.98213 0.98506 0.18416 0.31300
C 	C 	0.79299 0.77973 0.19994 0.32800
C 	C 	0.98678 0.04362 0.26474 0.31300
C 	C 	0.97489 0.75616 0.21582 0.33300
C 	C 	0.97448 0.82633 0.29025 0.30000
Ni	Ni	0.87864 0.92924 0.22833 1.12400
Ni	Ni	0.00805 0.91904 0.23657 1.12800
Ni	Ni	0.87250 0.76206 0.24588 1.13000
O 	O 	0.79617 0.86035 0.25312 -0.33800
O 	O 	0.82370 0.77701 0.27810 -0.36000
O 	O 	0.01918 0.82471 0.22614 -0.35600
O 	O 	0.94979 0.00736 0.20072 -0.33100
O 	O 	0.00310 0.93834 0.19404 -0.34400
O 	O 	0.93636 0.76337 0.27451 -0.35700
O 	O 	0.84197 0.84946 0.19516 -0.34600
O 	O 	0.79496 0.73408 0.22054 -0.35000
O 	O 	0.01583 0.89471 0.27783 -0.36200
O 	O 	0.92518 0.01427 0.25987 -0.33900
O 	O 	0.02232 0.02997 0.24636 -0.34900
O 	O 	0.91605 0.74144 0.21320 -0.35400
O 	O 	0.91870 0.87465 0.24248 -0.71300
H 	H 	0.91863 0.88810 0.26276 0.15400
C 	C 	0.00269 0.20606 0.08022 -0.06900
C 	C 	0.04063 0.16985 0.08163 0.03700
C 	C 	0.09572 0.20007 0.06445 0.08400
C 	C 	0.11950 0.27543 0.05168 0.00100
C 	C 	0.08957 0.32070 0.05694 -0.04900
C 	C 	0.02659 0.28128 0.06740 0.14500
C 	C 	0.03233 0.11674 0.10613 0.02300
N 	N 	0.13013 0.15746 0.06186 -0.01600
H 	H 	0.16517 0.30255 0.04090 0.11700
N 	N 	0.98768 0.31824 0.06588 -0.00900
H 	H 	0.95756 0.17970 0.09145 0.11600
C 	C 	0.07183 0.14675 0.13035 0.07900
C 	C 	0.05823 0.09986 0.15504 0.00200
C 	C 	0.00457 0.02405 0.15619 -0.06300
C 	C 	0.96709 0.99206 0.13151 0.12400
C 	C 	0.98102 0.03881 0.10661 -0.03900
N 	N 	0.12354 0.22664 0.13052 -0.01900
H 	H 	0.08736 0.12436 0.17394 0.08300
N 	N 	0.91429 0.91270 0.13179 -0.02300
H 	H 	0.95122 0.01506 0.08787 0.11000
O 	O 	0.01192 0.39387 0.07085 -0.04800
O 	O 	0.92730 0.27551 0.06054 0.01100
O 	O 	0.09985 0.08112 0.05736 -0.01600
O 	O 	0.19181 0.19520 0.06338 -0.01700
O 	O 	0.85919 0.89902 0.12245 -0.04500
O 	O 	0.92236 0.85346 0.13949 -0.02900
O 	O 	0.11244 0.28583 0.13284 -0.09000
O 	O 	0.18167 0.23977 0.13109 -0.06000
C 	C 	0.53397 0.69040 0.12700 -0.06200
C 	C 	0.54543 0.69913 0.15651 0.03400
C 	C 	0.49776 0.69382 0.17533 0.07300
C 	C 	0.43803 0.67537 0.16455 0.00500
C 	C 	0.42522 0.66132 0.13520 -0.06600
C 	C 	0.47447 0.67270 0.11618 0.13700
C 	C 	0.60887 0.71923 0.16737 0.03300
N 	N 	0.50966 0.70635 0.20543 -0.01700
H 	H 	0.40072 0.66809 0.17920 0.09500
N 	N 	0.46412 0.66634 0.08584 -0.02600
H 	H 	0.57152 0.69806 0.11241 0.11200
C 	C 	0.62720 0.66047 0.16980 0.07700
C 	C 	0.68814 0.68127 0.17971 0.00800
C 	C 	0.73115 0.76028 0.18707 -0.07900
C 	C 	0.71288 0.81932 0.18393 0.13400
C 	C 	0.65197 0.79820 0.17426 -0.06400
N 	N 	0.58414 0.57969 0.16218 -0.01900
H 	H 	0.70175 0.63574 0.18194 0.09500
N 	N 	0.75560 0.90056 0.19098 -0.03600
H 	H 	0.63818 0.84357 0.17203 0.10300
O 	O 	0.48425 0.62723 0.07034 -0.03500
O 	O 	0.43877 0.70442 0.07346 -0.06800
O 	O 	0.50059 0.75932 0.21855 -0.05800
O 	O 	0.52498 0.66090 0.22007 -0.06400
O 	O 	0.79647 0.94724 0.17198 -0.07200
O 	O 	0.74569 0.93095 0.21393 -0.08300
O 	O 	0.60087 0.54397 0.14329 -0.02000
O 	O 	0.53002 0.54022 0.17547 -0.04700
C 	C 	0.13819 0.58316 0.21287 -0.06800
C 	C 	0.07256 0.54021 0.20785 0.03200
C 	C 	0.04718 0.46622 0.19371 0.07000
C 	C 	0.08848 0.44794 0.17827 -0.00100
C 	C 	0.15379 0.50258 0.17749 -0.08100
C 	C 	0.17888 0.56220 0.19853 0.12700
C 	C 	0.03471 0.58145 0.21060 0.03600
N 	N 	0.98024 0.40999 0.19515 -0.01000
H 	H 	0.06929 0.39651 0.16436 0.08900
N 	N 	0.24622 0.60810 0.20255 -0.02700
H 	H 	0.15788 0.63616 0.22600 0.10000
C 	C 	0.02670 0.60848 0.23750 0.07200
C 	C 	0.00388 0.66260 0.23897 -0.00700
C 	C 	0.98871 0.68995 0.21391 -0.07700
C 	C 	0.99302 0.65928 0.18717 0.15400
C 	C 	0.01539 0.60466 0.18569 -0.06100
N 	N 	0.04353 0.58301 0.26330 -0.01700
H 	H 	0.99952 0.68497 0.25963 0.08700
N 	N 	0.97764 0.68617 0.16134 -0.02800
H 	H 	0.02144 0.58410 0.16499 0.10600
O 	O 	0.28031 0.57293 0.20337 -0.06400
O 	O 	0.27355 0.68502 0.20522 -0.06200
O 	O 	0.95477 0.35175 0.17694 -0.00500
O 	O 	0.94626 0.41194 0.21646 -0.03200
O 	O 	0.01053 0.76050 0.15371 -0.03100
O 	O 	0.93528 0.63496 0.14404 0.01000
O 	O 	0.07879 0.63509 0.28234 -0.06700
O 	O 	0.02073 0.50755 0.26849 -0.05300
C 	C 	0.66526 0.81920 0.32348 -0.06500
C 	C 	0.63076 0.73936 0.33225 0.03400
C 	C 	0.64883 0.68437 0.32251 0.07300
C 	C 	0.70002 0.70915 0.30357 0.00400
C 	C 	0.73505 0.78913 0.29493 -0.07400
C 	C 	0.71801 0.84470 0.30530 0.13400
C 	C 	0.57394 0.71274 0.35055 0.02900
N 	N 	0.61527 0.60317 0.33189 -0.02000
H 	H 	0.71284 0.66611 0.29570 0.08600
N 	N 	0.75551 0.92737 0.29834 -0.02300
H 	H 	0.65164 0.86172 0.33111 0.10700
C 	C 	0.57984 0.73517 0.37957 0.09200
C 	C 	0.52528 0.70993 0.39647 0.02000
C 	C 	0.46497 0.66185 0.38474 -0.06700
C 	C 	0.45920 0.63739 0.35599 0.13700
C 	C 	0.51361 0.66369 0.33897 -0.05900
N 	N 	0.64110 0.78444 0.39183 -0.01800
H 	H 	0.52979 0.72896 0.41858 0.11700
N 	N 	0.39793 0.58738 0.34383 -0.02600
H 	H 	0.50899 0.64576 0.31672 0.09900
O 	O 	0.72950 0.96422 0.28566 -0.05200
O 	O 	0.81410 0.96728 0.30691 -0.07200
O 	O 	0.59083 0.54611 0.31318 -0.04300
O 	O 	0.61273 0.58612 0.35900 -0.01800
O 	O 	0.37958 0.61151 0.32163 -0.06200
O 	O 	0.36244 0.51563 0.35368 -0.05100
O 	O 	0.65523 0.85347 0.40239 0.01400
O 	O 	0.68158 0.75868 0.39371 -0.01500
C 	C 	0.11106 0.19484 0.31533 -0.07200
C 	C 	0.07487 0.22101 0.33057 0.03700
C 	C 	0.00953 0.18757 0.32486 0.05800
C 	C 	0.98166 0.13065 0.30319 0.01900
C 	C 	0.01790 0.10463 0.28757 -0.09200
C 	C 	0.08312 0.13632 0.29426 0.13400
C 	C 	0.10659 0.28681 0.35133 0.03000
N 	N 	0.97118 0.21097 0.34114 -0.01600
H 	H 	0.93162 0.10643 0.29868 0.09200
N 	N 	0.12115 0.10919 0.27990 -0.02600
H 	H 	0.16131 0.22028 0.31978 0.10300
C 	C 	0.13522 0.27714 0.37615 0.09400
C 	C 	0.17372 0.34333 0.39310 0.01700
C 	C 	0.18239 0.41892 0.38605 -0.06100
C 	C 	0.14883 0.42674 0.36269 0.13900
C 	C 	0.11263 0.36130 0.34506 -0.05500
N 	N 	0.12576 0.20027 0.38405 -0.01600
H 	H 	0.19759 0.33601 0.41152 0.10800
N 	N 	0.14930 0.50002 0.35751 -0.02600
H 	H 	0.08925 0.36848 0.32642 0.09900
O 	O 	0.15508 0.14813 0.25777 -0.06100
O 	O 	0.12918 0.05336 0.29140 -0.06800
O 	O 	0.93635 0.23533 0.32809 -0.03500
O 	O 	0.96808 0.20331 0.36887 -0.00300
O 	O 	0.17491 0.54008 0.33417 -0.05900
O 	O 	0.11702 0.52113 0.37416 -0.04400
O 	O 	0.17438 0.19064 0.38926 -0.02500
O 	O 	0.06854 0.14097 0.38757 -0.02000
C 	C 	0.13162 0.79703 0.37371 -0.06000
C 	C 	0.07717 0.78477 0.38858 0.03400
C 	C 	0.06399 0.74903 0.41597 0.08200
C 	C 	0.10459 0.72378 0.42767 0.00700
C 	C 	0.15692 0.73184 0.41190 -0.06700
C 	C 	0.17032 0.76873 0.38470 0.13700
C 	C 	0.02961 0.79695 0.37311 0.03000
N 	N 	0.00885 0.73678 0.43166 -0.02500
H 	H 	0.09466 0.69646 0.44874 0.09400
N 	N 	0.22175 0.77477 0.36764 -0.02900
H 	H 	0.14158 0.82406 0.35258 0.10000
C 	C 	0.04563 0.87401 0.36364 0.07500
C 	C 	0.02041 0.88331 0.33787 -0.00700
C 	C 	0.98040 0.81637 0.32143 -0.07200
C 	C 	0.95409 0.74012 0.33422 0.13200
C 	C 	0.97889 0.73100 0.36012 -0.05900
N 	N 	0.09221 0.94276 0.37863 -0.02100
H 	H 	0.03491 0.94258 0.32986 0.08200
N 	N 	0.90174 0.67254 0.32141 -0.02200
H 	H 	0.96273 0.67185 0.36870 0.11600
O 	O 	0.21444 0.71342 0.35313 -0.07200
O 	O 	0.26969 0.84454 0.36192 -0.05000
O 	O 	0.97179 0.66806 0.44347 -0.01000
O 	O 	0.99797 0.79567 0.43572 -0.03200
O 	O 	0.90781 0.61206 0.31349 -0.05000
O 	O 	0.84649 0.66847 0.32007 -0.06000
O 	O 	0.13625 0.00278 0.36447 -0.03000
O 	O 	0.08974 0.94615 0.40639 -0.02900
C 	C 	0.49827 0.04185 0.43786 0.05500
C 	C 	0.46397 0.08164 0.43274 0.08000
C 	C 	0.40644 0.04304 0.41740 -0.08300
C 	C 	0.37643 0.95998 0.41424 0.07100
C 	C 	0.40722 0.91790 0.42301 0.01300
C 	C 	0.47145 0.96058 0.43177 -0.07200
C 	C 	0.48518 0.15946 0.44647 0.10900
C 	C 	0.37775 0.09008 0.40423 0.78700
H 	H 	0.32775 0.92760 0.40699 0.09800
C 	C 	0.50979 0.91901 0.43712 0.78100
H 	H 	0.54434 0.07318 0.44809 0.10900
C 	C 	0.47174 0.16343 0.47586 -0.11000
C 	C 	0.51418 0.23020 0.49178 0.08700
C 	C 	0.57053 0.28888 0.47911 0.03500
C 	C 	0.57309 0.29505 0.44884 -0.05800
C 	C 	0.53227 0.22792 0.43274 0.03100
C 	C 	0.41910 0.09199 0.49131 0.79100
H 	H 	0.50766 0.23137 0.51468 0.10300
C 	C 	0.61709 0.37227 0.43356 0.78000
H 	H 	0.53999 0.22693 0.40990 0.13400
F 	F 	0.50047 0.89170 0.46506 -0.41500
F 	F 	0.57389 0.97108 0.43293 -0.40400
F 	F 	0.49216 0.85575 0.41862 -0.44000
F 	F 	0.42268 0.15080 0.38739 -0.40900
F 	F 	0.35775 0.12261 0.42547 -0.38000
F 	F 	0.32621 0.04265 0.38710 -0.40800
F 	F 	0.58935 0.37869 0.40852 -0.38800
F 	F 	0.67333 0.37380 0.42667 -0.39000
F 	F 	0.62977 0.43726 0.45041 -0.38400
F 	F 	0.40324 0.11440 0.51683 -0.40500
F 	F 	0.43912 0.03763 0.49729 -0.41500
F 	F 	0.36486 0.05571 0.47483 -0.39200
C 	C 	0.05858 0.41414 0.52236 0.03200
C 	C 	0.03278 0.35981 0.49975 0.08700
C 	C 	0.07384 0.34669 0.48164 -0.10700
C 	C 	0.13951 0.39923 0.48312 0.06700
C 	C 	0.16356 0.46443 0.50172 0.00800
C 	C 	0.12427 0.46568 0.52394 -0.06900
C 	C 	0.96645 0.33307 0.49131 0.10800
C 	C 	0.04811 0.28413 0.45830 0.78300
H 	H 	0.17104 0.39377 0.46796 0.08100
C 	C 	0.15105 0.52590 0.54794 0.78000
H 	H 	0.02712 0.42114 0.53718 0.10900
C 	C 	0.91508 0.28002 0.50891 -0.11100
C 	C 	0.85731 0.28050 0.50720 0.08300
C 	C 	0.85073 0.33270 0.48836 0.00300
C 	C 	0.89681 0.37145 0.46671 -0.05900
C 	C 	0.95557 0.37392 0.46906 0.03000
C 	C 	0.92357 0.23043 0.53193 0.79400
H 	H 	0.81913 0.24447 0.52193 0.08900
C 	C 	0.88499 0.41299 0.44183 0.77700
H 	H 	0.99432 0.41220 0.45489 0.11500
F 	F 	0.11510 0.49590 0.57261 -0.42100
F 	F 	0.15019 0.59444 0.54004 -0.41100
F 	F 	0.21271 0.54438 0.55416 -0.37500
F 	F 	0.03998 0.31722 0.43347 -0.43500
F 	F 	0.99065 0.21946 0.46613 -0.37400
F 	F 	0.09019 0.25658 0.45279 -0.41600
F 	F 	0.90426 0.49092 0.44914 -0.41800
F 	F 	0.82128 0.37494 0.43465 -0.38900
F 	F 	0.91885 0.41285 0.41790 -0.40000
F 	F 	0.86651 0.16232 0.53765 -0.39600
F 	F 	0.94462 0.27443 0.55675 -0.44500
F 	F 	0.96686 0.20708 0.52361 -0.38000
C 	C 	0.56437 0.58597 0.53246 0.04300
C 	C 	0.59130 0.66487 0.54172 0.08400
C 	C 	0.64870 0.69917 0.55733 -0.09200
C 	C 	0.68480 0.65996 0.55774 0.07700
C 	C 	0.66033 0.58371 0.54576 0.01400
C 	C 	0.59646 0.54296 0.53642 -0.06700
C 	C 	0.55953 0.71095 0.53406 0.10700
C 	C 	0.66899 0.77387 0.57491 0.78900
H 	H 	0.73220 0.68921 0.56667 0.09100
C 	C 	0.56252 0.45455 0.53016 0.77700
H 	H 	0.51857 0.55838 0.52192 0.10600
C 	C 	0.56806 0.74504 0.50636 -0.10700
C 	C 	0.51820 0.75239 0.49414 0.08800
C 	C 	0.46002 0.72313 0.50860 0.02100
C 	C 	0.45781 0.70767 0.53838 -0.06500
C 	C 	0.50764 0.70034 0.55078 0.02900
C 	C 	0.62448 0.75980 0.48778 0.79000
H 	H 	0.52145 0.77043 0.47192 0.12000
C 	C 	0.40191 0.69577 0.55667 0.78100
H 	H 	0.50297 0.67811 0.57249 0.13100
F 	F 	0.57280 0.44275 0.50195 -0.40300
F 	F 	0.49778 0.42166 0.53459 -0.42000
F 	F 	0.58367 0.41506 0.54789 -0.47400
F 	F 	0.62206 0.76058 0.59467 -0.41300
F 	F 	0.67870 0.83672 0.55739 -0.37400
F 	F 	0.72461 0.79538 0.58970 -0.40800
F 	F 	0.41566 0.69919 0.58557 -0.39100
F 	F 	0.35007 0.62218 0.55100 -0.38600
F 	F 	0.38688 0.75493 0.55095 -0.38500
F 	F 	0.63439 0.81452 0.46638 -0.39400
F 	F 	0.61303 0.68920 0.47519 -0.41800
F 	F 	0.67954 0.78963 0.50367 -0.38300
C 	C 	0.96993 0.38874 0.61281 -0.04800
C 	C 	0.95114 0.31470 0.62563 0.04800
C 	C 	0.88731 0.25371 0.62370 0.08900
C 	C 	0.84277 0.26830 0.60974 0.02200
C 	C 	0.86137 0.34304 0.59758 -0.07700
C 	C 	0.92553 0.40280 0.59852 0.14600
C 	C 	0.99576 0.30514 0.64458 0.03700
N 	N 	0.86724 0.17769 0.63666 -0.01700
H 	H 	0.79364 0.22155 0.60849 0.09200
N 	N 	0.94594 0.47733 0.58454 -0.02400
H 	H 	0.01888 0.43582 0.61428 0.12400
C 	C 	0.03486 0.27577 0.63394 0.08400
C 	C 	0.06816 0.25369 0.65314 0.00400
C 	C 	0.06235 0.26058 0.68275 -0.07200
C 	C 	0.03027 0.29998 0.69288 0.12800
C 	C 	0.99597 0.32038 0.67387 -0.05800
N 	N 	0.04017 0.26736 0.60379 -0.01500
H 	H 	0.09684 0.22912 0.64506 0.09900
N 	N 	0.03506 0.32269 0.72224 -0.02700
H 	H 	0.96881 0.34720 0.68194 0.09400
O 	O 	0.95245 0.48259 0.55684 -0.04700
O 	O 	0.96076 0.54066 0.59959 -0.05500
O 	O 	0.82240 0.15030 0.65590 -0.04700
O 	O 	0.89075 0.13361 0.62787 -0.01900
O 	O 	0.08881 0.37861 0.73206 -0.07000
O 	O 	0.98431 0.29438 0.73816 -0.06000
O 	O 	0.06895 0.33021 0.58761 0.00200
O 	O 	0.01996 0.19717 0.59281 -0.00200
C 	C 	0.37397 0.26576 0.64424 -0.06800
C 	C 	0.39897 0.21377 0.64483 0.03700
C 	C 	0.36723 0.14187 0.66035 0.06800
C 	C 	0.31195 0.12380 0.67574 0.00900
C 	C 	0.28810 0.17701 0.67600 -0.08300
C 	C 	0.31859 0.24766 0.65968 0.14100
C 	C 	0.46101 0.23783 0.63109 0.02800
N 	N 	0.39213 0.08819 0.66124 -0.01800
H 	H 	0.28855 0.06931 0.68821 0.06800
N 	N 	0.29332 0.30095 0.65862 -0.02500
H 	H 	0.39794 0.32068 0.63205 0.10900
C 	C 	0.46602 0.23360 0.60112 0.08900
C 	C 	0.52573 0.25985 0.58848 0.01400
C 	C 	0.58058 0.29168 0.60536 -0.06300
C 	C 	0.57532 0.29326 0.63540 0.13500
C 	C 	0.51562 0.26666 0.64807 -0.06100
N 	N 	0.41082 0.20450 0.58341 -0.01800
H 	H 	0.52962 0.25763 0.56543 0.10400
N 	N 	0.63056 0.32195 0.65308 -0.02400
H 	H 	0.51171 0.26866 0.67115 0.09700
O 	O 	0.23531 0.27551 0.65013 -0.05300
O 	O 	0.32960 0.37599 0.66432 -0.04500
O 	O 	0.40393 0.06611 0.68576 -0.05600
O 	O 	0.39953 0.05784 0.63767 -0.03700
O 	O 	0.64161 0.37544 0.67248 -0.06000
O 	O 	0.66758 0.29101 0.65103 -0.05500
O 	O 	0.40957 0.24769 0.56226 0.00500
O 	O 	0.36389 0.13260 0.58703 -0.02000
C 	C 	0.00957 0.92103 0.61487 -0.07400
C 	C 	0.98487 0.83843 0.61526 0.04400
C 	C 	0.97545 0.79830 0.64163 0.06300
C 	C 	0.99205 0.84139 0.66722 0.01400
C 	C 	0.01702 0.92419 0.66687 -0.09000
C 	C 	0.02515 0.96394 0.64050 0.13900
C 	C 	0.96580 0.79343 0.58819 0.02600
N 	N 	0.94861 0.71363 0.64248 -0.01500
H 	H 	0.98506 0.81030 0.68742 0.08500
N 	N 	0.04850 0.04768 0.63967 -0.02400
H 	H 	0.01613 0.95191 0.59466 0.11000
C 	C 	0.90954 0.77913 0.57428 0.07600
C 	C 	0.88377 0.72088 0.55305 0.00200
C 	C 	0.91131 0.67328 0.54710 -0.07800
C 	C 	0.97312 0.69733 0.55703 0.14300
C 	C 	0.99976 0.75677 0.57803 -0.05600
N 	N 	0.87621 0.81964 0.58303 -0.02200
H 	H 	0.83891 0.70731 0.54336 0.09100
N 	N 	0.00962 0.66393 0.54504 -0.02700
H 	H 	0.04556 0.77240 0.58718 0.10000
O 	O 	0.00972 0.07469 0.63453 -0.05400
O 	O 	0.10906 0.09679 0.64197 -0.06600
O 	O 	0.98017 0.68234 0.65403 -0.06300
O 	O 	0.89107 0.66780 0.63341 -0.08100
O 	O 	0.00174 0.64137 0.51841 -0.03900
O 	O 	0.05459 0.66269 0.55990 -0.01800
O 	O 	0.86684 0.86381 0.56479 -0.00200
O 	O 	0.84984 0.80607 0.60824 -0.03000
C 	C 	0.91704 0.44564 0.03442 0.03100
C 	C 	0.89826 0.48450 0.05437 0.09900
C 	C 	0.83833 0.47994 0.05171 -0.09700
C 	C 	0.80130 0.44316 0.02745 0.09800
C 	C 	0.82278 0.41040 0.00625 0.01900
C 	C 	0.87854 0.40587 0.01086 -0.05500
C 	C 	0.94560 0.53865 0.07522 0.10200
C 	C 	0.81693 0.52209 0.07273 0.79000
H 	H 	0.75774 0.44499 0.02396 0.08900
C 	C 	0.89869 0.36236 0.98992 0.77900
H 	H 	0.96375 0.45152 0.03617 0.11000
C 	C 	0.96534 0.50719 0.09795 -0.11400
C 	C 	0.02960 0.54719 0.10592 0.06100
C 	C 	0.07293 0.61554 0.09094 0.00600
C 	C 	0.04940 0.65777 0.07516 -0.07500
C 	C 	0.98545 0.61787 0.06671 0.03400
C 	C 	0.91853 0.43488 0.11505 0.79900
H 	H 	0.04692 0.52025 0.12130 0.07100
C 	C 	0.09349 0.74175 0.06497 0.78100
H 	H 	0.96894 0.64444 0.05081 0.12600
F 	F 	0.95096 0.35805 0.99966 -0.40300
F 	F 	0.91408 0.40156 0.96383 -0.41500
F 	F 	0.84954 0.28549 0.98617 -0.38200
F 	F 	0.84724 0.60247 0.06637 -0.41600
F 	F 	0.83101 0.51184 0.10057 -0.38000
F 	F 	0.75198 0.49257 0.07122 -0.39200
F 	F 	0.05982 0.77925 0.05666 -0.39600
F 	F 	0.12898 0.74038 0.04193 -0.40000
F 	F 	0.13382 0.78550 0.08689 -0.37300
F 	F 	0.86123 0.39046 0.10123 -0.38500
F 	F 	0.90704 0.45978 0.14102 -0.40500
F 	F 	0.94397 0.38572 0.12019 -0.42800
C 	C 	0.53854 0.09166 0.02373 0.04200
C 	C 	0.47541 0.07305 0.01949 0.09600
C 	C 	0.46197 0.13226 0.00903 -0.09000
C 	C 	0.51261 0.20550 0.99949 0.08100
C 	C 	0.57512 0.21925 0.00014 0.02000
C 	C 	0.58873 0.16587 0.01525 -0.06100
C 	C 	0.42397 0.99262 0.02763 0.09900
C 	C 	0.39459 0.11898 0.00921 0.78500
H 	H 	0.50321 0.24990 0.98997 0.11700
C 	C 	0.65667 0.18561 0.02067 0.78200
H 	H 	0.54843 0.04749 0.03311 0.12000
C 	C 	0.40582 0.92664 0.00921 -0.10300
C 	C 	0.36612 0.84924 0.01984 0.08000
C 	C 	0.34184 0.83714 0.04783 0.01900
C 	C 	0.35507 0.90409 0.06516 -0.05100
C 	C 	0.39914 0.98055 0.05541 0.02700
C 	C 	0.43173 0.93819 0.97886 0.79200
H 	H 	0.35561 0.79811 0.00666 0.10400
C 	C 	0.32410 0.89497 0.09428 0.77600
H 	H 	0.41498 0.03105 0.06965 0.13700
F 	F 	0.68132 0.17008 0.99634 -0.39800
F 	F 	0.66000 0.14069 0.04308 -0.39200
F 	F 	0.69336 0.26491 0.02785 -0.41000
F 	F 	0.37441 0.11524 0.03718 -0.38900
F 	F 	0.35393 0.04873 0.99550 -0.36900
F 	F 	0.39077 0.18004 0.99542 -0.36000
F 	F 	0.32650 0.96521 0.10262 -0.38600
F 	F 	0.35548 0.87497 0.11456 -0.42900
F 	F 	0.26095 0.83723 0.09353 -0.39300
F 	F 	0.40023 0.86906 0.96300 -0.39800
F 	F 	0.49548 0.96045 0.97958 -0.41500
F 	F 	0.42442 0.99647 0.96499 -0.39300
C 	C 	0.50698 0.54709 0.94395 0.04000
C 	C 	0.45257 0.47473 0.95046 0.09100
C 	C 	0.44404 0.40379 0.93757 -0.09900
C 	C 	0.49596 0.40463 0.92355 0.07500
C 	C 	0.55492 0.47463 0.92254 0.01100
C 	C 	0.55786 0.54781 0.92909 -0.06000
C 	C 	0.40823 0.47297 0.97279 0.10100
C 	C 	0.38088 0.32721 0.93969 0.78900
H 	H 	0.49272 0.34948 0.91628 0.07800
C 	C 	0.61745 0.62596 0.92298 0.77800
H 	H 	0.51139 0.60203 0.95219 0.11900
C 	C 	0.42138 0.47162 0.00236 -0.10300
C 	C 	0.38221 0.48002 0.02282 0.08000
C 	C 	0.32891 0.48537 0.01432 0.00600
C 	C 	0.31180 0.47680 0.98498 -0.05600
C 	C 	0.35456 0.47756 0.96444 0.03600
C 	C 	0.47959 0.46735 0.01209 0.78900
H 	H 	0.39407 0.48461 0.04535 0.09400
C 	C 	0.24784 0.46524 0.97547 0.77900
H 	H 	0.34577 0.48076 0.94186 0.12700
F 	F 	0.66284 0.63880 0.94338 -0.41300
F 	F 	0.60528 0.68894 0.92356 -0.40300
F 	F 	0.64090 0.62428 0.89610 -0.43000
F 	F 	0.33326 0.33897 0.92847 -0.41100
F 	F 	0.36697 0.30385 0.96801 -0.36600
F 	F 	0.38162 0.26599 0.92460 -0.41100
F 	F 	0.24915 0.53764 0.97505 -0.41800
F 	F 	0.20043 0.41358 0.99382 -0.41700
F 	F 	0.23278 0.43290 0.94827 -0.39200
F 	F 	0.47773 0.45295 0.04124 -0.40000
F 	F 	0.53371 0.53873 0.00615 -0.41400
F 	F 	0.48328 0.40654 0.99821 -0.39600
C 	C 	0.96469 0.21741 0.83712 -0.05200
C 	C 	0.97227 0.29177 0.82916 0.03700
C 	C 	0.02253 0.34162 0.81068 0.07000
C 	C 	0.06186 0.31448 0.79901 0.00400
C 	C 	0.04842 0.23578 0.80371 -0.06500
C 	C 	0.00319 0.18967 0.82485 0.12300
C 	C 	0.92744 0.31707 0.84027 0.03700
N 	N 	0.03223 0.41855 0.80283 -0.02000
H 	H 	0.10067 0.35329 0.78506 0.09400
N 	N 	0.99814 0.11648 0.83474 -0.01500
H 	H 	0.92874 0.18099 0.85273 0.10600
C 	C 	0.86304 0.27690 0.83200 0.06900
C 	C 	0.82022 0.29732 0.84454 0.00600
C 	C 	0.84131 0.35868 0.86475 -0.08000
C 	C 	0.90653 0.40294 0.87126 0.14800
C 	C 	0.94893 0.38054 0.85961 -0.06400
N 	N 	0.84090 0.21505 0.81103 -0.01800
H 	H 	0.77029 0.26412 0.83906 0.07900
N 	N 	0.93016 0.47250 0.88879 -0.02400
H 	H 	0.99873 0.41312 0.86534 0.11300
O 	O 	0.94297 0.05229 0.83592 -0.05300
O 	O 	0.04828 0.11492 0.84392 -0.06500
O 	O 	0.08669 0.48156 0.80764 -0.05600
O 	O 	0.98864 0.42498 0.78871 -0.05600
O 	O 	0.97084 0.48435 0.90897 -0.00100
O 	O 	0.91559 0.52743 0.88284 -0.05900
O 	O 	0.79318 0.14518 0.81690 -0.05600
O 	O 	0.86590 0.22995 0.78551 -0.05900
C 	C 	0.44027 0.14677 0.87450 -0.06400
C 	C 	0.43830 0.14851 0.84454 0.04000
C 	C 	0.49151 0.15903 0.82857 0.06700
C 	C 	0.54902 0.18114 0.84265 0.00900
C 	C 	0.55365 0.19388 0.87231 -0.07400
C 	C 	0.49743 0.16659 0.88842 0.14200
C 	C 	0.38521 0.15218 0.83026 0.03300
N 	N 	0.48819 0.15153 0.79801 -0.01600
H 	H 	0.59145 0.19651 0.83021 0.08000
N 	N 	0.49893 0.16262 0.91895 -0.03200
H 	H 	0.39831 0.13348 0.88697 0.13500
C 	C 	0.32379 0.08540 0.82981 0.07800
C 	C 	0.27535 0.08894 0.81458 0.00100
C 	C 	0.28811 0.15755 0.79899 -0.07300
C 	C 	0.34852 0.22581 0.80091 0.13700
C 	C 	0.39637 0.22313 0.81689 -0.06100
N 	N 	0.31090 0.01309 0.84398 -0.01500
H 	H 	0.22875 0.03653 0.81338 0.07200
N 	N 	0.36256 0.29648 0.78533 -0.02500
H 	H 	0.44306 0.27540 0.81794 0.09500
O 	O 	0.52085 0.12039 0.93109 0.00000
O 	O 	0.47238 0.19409 0.93450 -0.02100
O 	O 	0.53205 0.20652 0.78205 -0.06900
O 	O 	0.44232 0.08862 0.78616 -0.05700
O 	O 	0.37251 0.36017 0.79901 -0.05000
O 	O 	0.37121 0.29939 0.75775 -0.06400
O 	O 	0.26567 0.98145 0.86297 -0.04000
O 	O 	0.34074 0.97552 0.83622 -0.04800
C 	C 	0.92400 0.79921 0.82851 -0.07100
C 	C 	0.95001 0.83408 0.85499 0.03900
C 	C 	0.00833 0.90583 0.85583 0.06600
C 	C 	0.03993 0.94162 0.83020 0.00600
C 	C 	0.01291 0.90786 0.80373 -0.08600
C 	C 	0.95516 0.83545 0.80292 0.14000
C 	C 	0.91786 0.79183 0.88167 0.02900
N 	N 	0.03512 0.94309 0.88261 -0.01800
H 	H 	0.08453 0.99711 0.83085 0.07300
N 	N 	0.92889 0.79744 0.77617 -0.02400
H 	H 	0.88003 0.74296 0.82782 0.09400
C 	C 	0.85524 0.77509 0.88751 0.08400
C 	C 	0.81633 0.71068 0.90532 -0.00500
C 	C 	0.83970 0.66358 0.91730 -0.06100
C 	C 	0.90552 0.69094 0.91636 0.13600
C 	C 	0.94421 0.75406 0.89790 -0.06000
N 	N 	0.82999 0.82022 0.87395 -0.01800
H 	H 	0.76661 0.69316 0.90775 0.13800
N 	N 	0.93285 0.65427 0.93388 -0.02100
H 	H 	0.99371 0.77079 0.89500 0.10700
O 	O 	0.96199 0.77884 0.75900 -0.06400
O 	O 	0.87035 0.77643 0.76989 -0.06000
O 	O 	0.09347 0.96277 0.88873 -0.04100
O 	O 	0.00286 0.96266 0.89991 -0.03600
O 	O 	0.98419 0.65410 0.92556 -0.02900
O 	O 	0.90960 0.62722 0.95921 -0.03300
O 	O 	0.77429 0.78401 0.86202 -0.03000
O 	O 	0.86182 0.89757 0.87432 -0.03800
