data_crystal

_cell_length_a 22.62811
_cell_length_b 22.24480
_cell_length_c 102.85455
_cell_angle_alpha 90.00086
_cell_angle_beta  90.00100
_cell_angle_gamma 119.61360

_symmetry_space_group_name_	'P 1'
_symmetry_space_group_name_H-M	'P 1'

loop_
_symmetry_equiv_pos_as_xyz
  x,y,z

loop_
_atom_site_label
_atom_site_type_symbol
_atom_site_fract_x
_atom_site_fract_y
_atom_site_fract_z
_atom_site_charge
Cu	Cu	0.81073 0.04936 0.63130 0.92700
Cu	Cu	0.80935 0.11998 0.60366 0.86700
Cu	Cu	0.85051 0.20159 0.62868 0.89500
Cu	Cu	0.87950 0.15501 0.65435 0.89300
C 	C 	0.89264 0.03057 0.65019 0.28800
O 	O 	0.73656 0.02108 0.64473 -0.36700
C 	C 	0.79674 0.24006 0.60596 0.27600
O 	O 	0.88910 0.14967 0.63621 -0.64000
O 	O 	0.78259 0.10820 0.62190 -0.64200
O 	O 	0.80977 0.99341 0.61629 -0.37000
O 	O 	0.87260 0.08691 0.60359 -0.43900
O 	O 	0.88063 0.06794 0.65865 -0.38800
O 	O 	0.92132 0.29019 0.63509 -0.38700
C 	C 	0.93962 0.30529 0.64740 0.28600
C 	C 	0.72516 0.06649 0.65074 0.27900
O 	O 	0.77412 0.13101 0.65191 -0.39300
O 	O 	0.93532 0.25781 0.65572 -0.39400
O 	O 	0.85440 0.00560 0.63975 -0.36800
C 	C 	0.85281 0.02256 0.60673 0.27400
O 	O 	0.81876 0.25408 0.61812 -0.38100
O 	O 	0.76872 0.17654 0.60140 -0.41900
H 	H 	0.93577 0.16384 0.63321 0.16000
H 	H 	0.73485 0.09661 0.62335 0.17000
Cu	Cu	0.10947 0.77112 0.70025 0.92800
Cu	Cu	0.17742 0.75213 0.72684 0.87000
Cu	Cu	0.25318 0.79172 0.70112 0.89600
Cu	Cu	0.20945 0.83262 0.67642 0.89200
C 	C 	0.09516 0.85950 0.68174 0.28000
O 	O 	0.07126 0.69706 0.68641 -0.36100
C 	C 	0.28471 0.72523 0.72270 0.27800
O 	O 	0.20999 0.84175 0.69470 -0.63800
O 	O 	0.16034 0.73034 0.70844 -0.64000
O 	O 	0.06213 0.77667 0.71607 -0.37500
O 	O 	0.15896 0.82618 0.72795 -0.44200
O 	O 	0.12730 0.84225 0.67307 -0.38300
O 	O 	0.34175 0.85657 0.69422 -0.38300
C 	C 	0.35514 0.87513 0.68190 0.28400
C 	C 	0.10987 0.67775 0.68018 0.27600
O 	O 	0.17455 0.72219 0.67817 -0.39000
O 	O 	0.31061 0.88061 0.67434 -0.39000
O 	O 	0.07500 0.82621 0.69289 -0.36200
C 	C 	0.09695 0.81435 0.72602 0.29100
O 	O 	0.29913 0.74945 0.71068 -0.37900
O 	O 	0.22295 0.70000 0.72739 -0.41800
H 	H 	0.23024 0.88985 0.69793 0.16300
H 	H 	0.14268 0.68075 0.70651 0.17000
Cu	Cu	0.34917 0.09161 0.86547 0.92800
Cu	Cu	0.42303 0.16016 0.89307 0.86600
Cu	Cu	0.46523 0.23977 0.86792 0.89500
Cu	Cu	0.38712 0.19904 0.84246 0.89200
C 	C 	0.24997 0.07868 0.84673 0.28300
O 	O 	0.39207 0.06053 0.85175 -0.36200
C 	C 	0.55736 0.27398 0.89022 0.27600
O 	O 	0.37478 0.19401 0.86073 -0.63800
O 	O 	0.43566 0.14524 0.87483 -0.64300
O 	O 	0.29489 0.03657 0.88049 -0.37600
O 	O 	0.32820 0.13038 0.89345 -0.43800
O 	O 	0.29880 0.11456 0.83827 -0.38500
O 	O 	0.48830 0.33048 0.86147 -0.38400
C 	C 	0.48624 0.34531 0.84912 0.28400
C 	C 	0.44909 0.10406 0.84593 0.27800
O 	O 	0.46534 0.16913 0.84433 -0.39100
O 	O 	0.43623 0.30225 0.84144 -0.39100
O 	O 	0.26252 0.05296 0.85724 -0.36300
C 	C 	0.28330 0.06662 0.89033 0.28700
O 	O 	0.55027 0.28582 0.87786 -0.38100
O 	O 	0.51945 0.21223 0.89536 -0.41700
H 	H 	0.34498 0.21149 0.86403 0.16100
H 	H 	0.46948 0.12995 0.87341 0.17000
Cu	Cu	0.77573 0.80368 0.79815 0.92800
Cu	Cu	0.68937 0.77988 0.77146 0.87000
Cu	Cu	0.65917 0.83556 0.79573 0.89500
Cu	Cu	0.74421 0.88165 0.82022 0.89300
C 	C 	0.87983 0.89521 0.81565 0.28600
O 	O 	0.73751 0.73594 0.81313 -0.36400
C 	C 	0.55758 0.75965 0.77511 0.27800
O 	O 	0.75174 0.88236 0.80194 -0.63700
O 	O 	0.68528 0.76573 0.79009 -0.64100
O 	O 	0.82553 0.79920 0.78261 -0.37700
O 	O 	0.78128 0.84967 0.76977 -0.44300
O 	O 	0.83219 0.88468 0.82422 -0.38700
O 	O 	0.64008 0.90773 0.80128 -0.38400
C 	C 	0.64868 0.93329 0.81318 0.28400
C 	C 	0.68139 0.72438 0.81909 0.27500
O 	O 	0.66495 0.77337 0.81971 -0.39300
O 	O 	0.69798 0.93810 0.82081 -0.39300
O 	O 	0.86496 0.85625 0.80518 -0.36600
C 	C 	0.82927 0.83453 0.77214 0.28700
O 	O 	0.57184 0.79492 0.78615 -0.38000
O 	O 	0.59321 0.73086 0.77127 -0.42100
H 	H 	0.78098 0.92844 0.79802 0.16300
H 	H 	0.65207 0.71788 0.79272 0.17100
Cu	Cu	0.17400 0.32072 0.46522 0.92800
Cu	Cu	0.22442 0.41069 0.43844 0.86900
Cu	Cu	0.31752 0.44257 0.46143 0.89500
Cu	Cu	0.29084 0.35407 0.48539 0.89300
C 	C 	0.17051 0.21503 0.48160 0.28400
O 	O 	0.15002 0.35656 0.48131 -0.36300
C 	C 	0.33464 0.54589 0.44155 0.27800
O 	O 	0.27695 0.34783 0.46720 -0.63700
O 	O 	0.22066 0.41355 0.45727 -0.64100
O 	O 	0.11307 0.27044 0.45043 -0.37300
O 	O 	0.20009 0.31701 0.43609 -0.44200
O 	O 	0.20965 0.26347 0.48997 -0.38600
O 	O 	0.40998 0.46474 0.46540 -0.38300
C 	C 	0.43137 0.45609 0.47684 0.28400
C 	C 	0.19512 0.41394 0.48704 0.27600
O 	O 	0.26008 0.43261 0.48660 -0.39300
O 	O 	0.39200 0.40336 0.48446 -0.39300
O 	O 	0.14285 0.22974 0.47171 -0.36300
C 	C 	0.13828 0.26896 0.43903 0.28900
O 	O 	0.35764 0.53264 0.45241 -0.38100
O 	O 	0.27044 0.50867 0.43818 -0.41900
H 	H 	0.29304 0.31969 0.46253 0.16300
H 	H 	0.20613 0.44610 0.46054 0.17200
Cu	Cu	0.87456 0.73305 0.52781 0.92800
Cu	Cu	0.84668 0.65183 0.55547 0.86700
Cu	Cu	0.90244 0.61364 0.53221 0.89400
Cu	Cu	0.95758 0.69758 0.50757 0.89100
C 	C 	0.97237 0.83643 0.51096 0.27600
O 	O 	0.81302 0.69300 0.51221 -0.36400
C 	C 	0.82741 0.51593 0.55329 0.27600
O 	O 	0.95211 0.70712 0.52574 -0.63800
O 	O 	0.83434 0.64289 0.53668 -0.64200
O 	O 	0.86318 0.78555 0.54218 -0.37700
O 	O 	0.91112 0.74764 0.55706 -0.44000
O 	O 	0.96415 0.78759 0.50267 -0.38700
O 	O 	0.97265 0.59070 0.52803 -0.38900
C 	C 	0.00021 0.59723 0.51642 0.28800
C 	C 	0.80292 0.63548 0.50665 0.27600
O 	O 	0.85055 0.61792 0.50702 -0.39400
O 	O 	0.01167 0.64926 0.50865 -0.38900
O 	O 	0.92887 0.82272 0.52053 -0.36400
C 	C 	0.89544 0.79420 0.55319 0.28700
O 	O 	0.85671 0.52554 0.54175 -0.38200
O 	O 	0.80029 0.55357 0.55705 -0.41800
H 	H 	0.99605 0.73659 0.53016 0.16000
H 	H 	0.78746 0.60913 0.53395 0.17100
Cu	Cu	0.76461 0.03993 0.37003 0.92600
Cu	Cu	0.67958 0.95225 0.39548 0.87100
Cu	Cu	0.65032 0.88917 0.36834 0.89600
Cu	Cu	0.73338 0.95550 0.34390 0.89300
C 	C 	0.86842 0.07219 0.35102 0.27800
O 	O 	0.72522 0.08311 0.35799 -0.36300
C 	C 	0.55160 0.83998 0.39008 0.27800
O 	O 	0.74180 0.94381 0.36187 -0.63500
O 	O 	0.67481 0.97767 0.37765 -0.64000
O 	O 	0.81490 0.07845 0.38652 -0.37900
O 	O 	0.77146 0.97339 0.39612 -0.43900
O 	O 	0.82093 0.04410 0.34200 -0.38600
O 	O 	0.63292 0.80663 0.35884 -0.38200
C 	C 	0.63806 0.80340 0.34609 0.28400
C 	C 	0.67034 0.04516 0.35102 0.27400
O 	O 	0.65416 0.98172 0.34771 -0.39000
O 	O 	0.68662 0.85520 0.33944 -0.39200
O 	O 	0.85356 0.08585 0.36265 -0.36400
C 	C 	0.82021 0.03764 0.39506 0.28200
O 	O 	0.56504 0.82967 0.37800 -0.37700
O 	O 	0.58363 0.90169 0.39537 -0.41900
H 	H 	0.77231 0.92524 0.36408 0.16200
H 	H 	0.64094 0.99303 0.37637 0.17000
Cu	Cu	0.33808 0.33204 0.30006 0.92800
Cu	Cu	0.40540 0.32557 0.27248 0.86600
Cu	Cu	0.44409 0.28591 0.29770 0.89500
Cu	Cu	0.37006 0.26059 0.32348 0.89300
C 	C 	0.23777 0.25422 0.31926 0.28400
O 	O 	0.38675 0.40844 0.31318 -0.36300
C 	C 	0.53504 0.33534 0.27491 0.27600
O 	O 	0.35531 0.25020 0.30532 -0.63900
O 	O 	0.42233 0.35620 0.29054 -0.64200
O 	O 	0.28469 0.33346 0.28499 -0.37900
O 	O 	0.30955 0.26435 0.27269 -0.43800
O 	O 	0.28600 0.26481 0.32769 -0.38600
O 	O 	0.45870 0.21317 0.30454 -0.38500
C 	C 	0.45667 0.19767 0.31700 0.28500
C 	C 	0.44142 0.41768 0.31939 0.27700
O 	O 	0.45350 0.36594 0.32081 -0.39300
O 	O 	0.41233 0.20052 0.32501 -0.39100
O 	O 	0.25228 0.29183 0.30862 -0.36300
C 	C 	0.26794 0.28729 0.27577 0.28600
O 	O 	0.52656 0.31474 0.28719 -0.38000
O 	O 	0.50081 0.36359 0.26995 -0.41800
H 	H 	0.32175 0.20300 0.30241 0.16100
H 	H 	0.45945 0.40443 0.29171 0.17100
Cu	Cu	0.28322 0.33208 0.03101 0.92800
Cu	Cu	0.28386 0.39532 0.05969 0.86600
Cu	Cu	0.24504 0.44368 0.03582 0.89500
Cu	Cu	0.21509 0.37815 0.00940 0.89400
C 	C 	0.20781 0.24175 0.01012 0.28400
O 	O 	0.35664 0.38442 0.01766 -0.36300
C 	C 	0.30222 0.53180 0.05896 0.27800
O 	O 	0.20510 0.35523 0.02727 -0.63900
O 	O 	0.31225 0.41584 0.04163 -0.64200
O 	O 	0.28364 0.27113 0.04503 -0.37500
O 	O 	0.22154 0.29893 0.05852 -0.43900
O 	O 	0.22159 0.29685 0.00312 -0.38700
O 	O 	0.17499 0.46454 0.03049 -0.38400
C 	C 	0.15528 0.46403 0.01838 0.28500
C 	C 	0.36803 0.44420 0.01294 0.27600
O 	O 	0.31908 0.45985 0.01278 -0.39500
O 	O 	0.15564 0.42063 0.00963 -0.39300
O 	O 	0.23854 0.24799 0.02133 -0.36300
C 	C 	0.24306 0.25627 0.05507 0.28600
O 	O 	0.28084 0.52653 0.04681 -0.38200
O 	O 	0.32571 0.49199 0.06338 -0.41800
H 	H 	0.15830 0.32193 0.03011 0.16400
H 	H 	0.36014 0.45255 0.04048 0.17100
Cu	Cu	0.98942 0.75347 0.96806 0.92300
Cu	Cu	0.92797 0.68813 0.93954 0.86400
Cu	Cu	0.84239 0.64324 0.96336 0.89400
Cu	Cu	0.87677 0.71193 0.98955 0.89200
C 	C 	0.00445 0.84669 0.98862 0.29800
O 	O 	0.01029 0.70162 0.98179 -0.35100
C 	C 	0.81295 0.55123 0.94076 0.27800
O 	O 	0.88941 0.73264 0.97158 -0.64100
O 	O 	0.93627 0.66908 0.95769 -0.64500
O 	O 	0.05048 0.81171 0.95398 -0.37400
O 	O 	0.96302 0.78558 0.94011 -0.45000
O 	O 	0.96328 0.79251 0.99570 -0.40100
O 	O 	0.75235 0.62365 0.96866 -0.38500
C 	C 	0.73381 0.62550 0.98077 0.28600
C 	C 	0.96284 0.64256 0.98661 0.26900
O 	O 	0.89907 0.62821 0.98672 -0.39500
O 	O 	0.77633 0.67138 0.98919 -0.39600
O 	O 	0.02763 0.83874 0.97737 -0.36300
C 	C 	0.02604 0.82706 0.94374 0.30000
O 	O 	0.79712 0.55892 0.95281 -0.38400
O 	O 	0.87463 0.59103 0.93608 -0.42000
H 	H 	0.87581 0.76622 0.96849 0.16000
H 	H 	0.94772 0.63192 0.95903 0.17000
Cu	Cu	0.25009 0.96488 0.13581 0.92600
Cu	Cu	0.27779 0.90805 0.10850 0.86600
Cu	Cu	0.21867 0.81603 0.13194 0.89500
Cu	Cu	0.16550 0.84816 0.15635 0.89300
C 	C 	0.15391 0.97393 0.15255 0.27400
O 	O 	0.31145 0.98686 0.15145 -0.36600
C 	C 	0.29309 0.78949 0.11137 0.27700
O 	O 	0.17095 0.86196 0.13813 -0.63900
O 	O 	0.28884 0.91271 0.12732 -0.64200
O 	O 	0.26220 0.02738 0.12110 -0.37700
O 	O 	0.21401 0.93963 0.10653 -0.44300
O 	O 	0.16130 0.93326 0.16096 -0.38400
O 	O 	0.14615 0.72389 0.13609 -0.38500
C 	C 	0.11896 0.70340 0.14774 0.29100
C 	C 	0.32054 0.93913 0.15715 0.27700
O 	O 	0.27198 0.87404 0.15693 -0.39300
O 	O 	0.10997 0.74521 0.15563 -0.39200
O 	O 	0.19700 0.00210 0.14285 -0.35700
C 	C 	0.22998 0.00244 0.11012 0.29400
O 	O 	0.26284 0.77104 0.12284 -0.38100
O 	O 	0.32224 0.85430 0.10747 -0.41900
H 	H 	0.12711 0.84779 0.13372 0.16200
H 	H 	0.33525 0.92502 0.13018 0.17000
Cu	Cu	0.94944 0.25316 0.19878 0.92600
Cu	Cu	0.89560 0.28014 0.22641 0.86500
Cu	Cu	0.80426 0.22366 0.20306 0.89400
Cu	Cu	0.83338 0.16848 0.17841 0.89200
C 	C 	0.95660 0.15516 0.18179 0.28900
O 	O 	0.97085 0.31575 0.18320 -0.36800
C 	C 	0.78051 0.29944 0.22397 0.27600
O 	O 	0.84770 0.17375 0.19662 -0.63900
O 	O 	0.89989 0.29339 0.20762 -0.64300
O 	O 	0.01246 0.26575 0.21316 -0.35900
O 	O 	0.92819 0.21620 0.22813 -0.43600
O 	O 	0.91616 0.16293 0.17353 -0.38900
O 	O 	0.71277 0.15185 0.19880 -0.38400
C 	C 	0.69243 0.12512 0.18710 0.28300
C 	C 	0.92426 0.32595 0.17764 0.27700
O 	O 	0.86004 0.27719 0.17790 -0.39400
O 	O 	0.73222 0.11323 0.17936 -0.39200
O 	O 	0.98464 0.19843 0.19156 -0.37000
C 	C 	0.98958 0.23293 0.22418 0.26400
O 	O 	0.76221 0.27003 0.21238 -0.38200
O 	O 	0.84384 0.32648 0.22803 -0.41900
H 	H 	0.83344 0.12903 0.20101 0.16000
H 	H 	0.91273 0.34106 0.20493 0.17000
C 	C 	0.94459 0.39205 0.17104 -0.08400
C 	C 	0.90934 0.42805 0.17346 -0.00400
C 	C 	0.93474 0.49553 0.16881 -0.04600
C 	C 	0.99561 0.52758 0.16168 -0.02800
C 	C 	0.02946 0.49027 0.15870 0.03600
C 	C 	0.00364 0.42260 0.16338 -0.01400
C 	C 	0.08981 0.52188 0.15144 -0.06900
C 	C 	0.11778 0.59082 0.14755 0.01500
C 	C 	0.08593 0.62910 0.15092 -0.08800
C 	C 	0.02405 0.59695 0.15777 0.02100
H 	H 	0.86363 0.40472 0.17933 0.02800
H 	H 	0.90785 0.52331 0.17101 0.03500
H 	H 	0.03031 0.39434 0.16134 0.04500
H 	H 	0.11574 0.49345 0.14898 0.04600
H 	H 	0.16521 0.61505 0.14219 0.03200
H 	H 	0.99857 0.62597 0.16015 0.02200
C 	C 	0.38594 0.95879 0.16351 -0.08300
C 	C 	0.41846 0.91985 0.16136 0.00500
C 	C 	0.48434 0.94319 0.16604 -0.06600
C 	C 	0.51825 0.00563 0.17298 0.01900
C 	C 	0.48458 0.04348 0.17563 0.00800
C 	C 	0.41856 0.01985 0.17087 -0.01300
C 	C 	0.51800 0.10533 0.18273 -0.05500
C 	C 	0.58514 0.13069 0.18679 0.00100
C 	C 	0.61982 0.09478 0.18376 -0.07100
C 	C 	0.58585 0.03153 0.17704 -0.02300
H 	H 	0.39358 0.87264 0.15570 0.02700
H 	H 	0.50936 0.91332 0.16408 0.04100
H 	H 	0.39305 0.04945 0.17269 0.04300
H 	H 	0.49237 0.13434 0.18494 0.04100
H 	H 	0.61080 0.17923 0.19204 0.03500
H 	H 	0.61208 0.00297 0.17491 0.04200
C 	C 	0.10874 0.00206 0.15582 -0.06800
C 	C 	0.08503 0.02830 0.14592 0.00400
C 	C 	0.04668 0.05997 0.14897 -0.05900
C 	C 	0.03155 0.06587 0.16197 0.02300
C 	C 	0.05329 0.03754 0.17195 0.01500
C 	C 	0.09150 0.00542 0.16883 -0.01800
C 	C 	0.03831 0.04358 0.18496 -0.06700
C 	C 	0.00435 0.07973 0.18808 0.03600
C 	C 	0.98468 0.11007 0.17825 -0.09200
C 	C 	0.99686 0.10162 0.16516 -0.02900
H 	H 	0.09693 0.02475 0.13584 0.03500
H 	H 	0.02962 0.08079 0.14123 0.04500
H 	H 	0.10939 0.98499 0.17651 0.04000
H 	H 	0.05405 0.02140 0.19268 0.04600
H 	H 	0.99434 0.08524 0.19819 0.01500
H 	H 	0.98168 0.12490 0.15754 0.04100
C 	C 	0.98255 0.59656 0.99318 -0.09400
C 	C 	0.95172 0.52648 0.98974 0.01300
C 	C 	0.97699 0.48492 0.99463 -0.08200
C 	C 	0.03324 0.51316 0.00304 0.03500
C 	C 	0.06216 0.58284 0.00704 0.00000
C 	C 	0.03654 0.62416 0.00209 0.00200
C 	C 	0.11779 0.61088 0.01558 -0.05000
C 	C 	0.14647 0.57105 0.01967 -0.00100
C 	C 	0.12004 0.50287 0.01524 -0.06800
C 	C 	0.06230 0.47340 0.00718 -0.02800
H 	H 	0.90969 0.50480 0.98293 0.02300
H 	H 	0.95378 0.43127 0.99165 0.04200
H 	H 	0.05957 0.67810 0.00491 0.04000
H 	H 	0.13972 0.66398 0.01884 0.04100
H 	H 	0.19057 0.59388 0.02598 0.03600
H 	H 	0.04084 0.42017 0.00399 0.04500
C 	C 	0.66118 0.58556 0.98415 -0.07400
C 	C 	0.62234 0.51664 0.98004 0.00300
C 	C 	0.55550 0.47598 0.98437 -0.05800
C 	C 	0.52663 0.50393 0.99282 0.01300
C 	C 	0.56439 0.57418 0.99651 0.01100
C 	C 	0.63157 0.61475 0.99215 -0.02000
C 	C 	0.53503 0.60235 0.00481 -0.05800
C 	C 	0.46967 0.56039 0.00979 0.00100
C 	C 	0.43327 0.48993 0.00659 -0.07500
C 	C 	0.46123 0.46213 0.99789 -0.02100
H 	H 	0.64465 0.49395 0.97380 0.03400
H 	H 	0.52663 0.42241 0.98134 0.04200
H 	H 	0.66102 0.66847 0.99510 0.03900
H 	H 	0.56320 0.65637 0.00758 0.03900
H 	H 	0.44813 0.58220 0.01644 0.02700
H 	H 	0.43252 0.40787 0.99525 0.04400
C 	C 	0.03763 0.91588 0.99467 -0.07600
C 	C 	0.03993 0.92280 0.00828 0.00700
C 	C 	0.07300 0.98829 0.01400 -0.06400
C 	C 	0.10429 0.04768 0.00620 0.01800
C 	C 	0.10160 0.04114 0.99251 0.01500
C 	C 	0.06800 0.97528 0.98682 -0.02300
C 	C 	0.13302 0.10055 0.98471 -0.05800
C 	C 	0.16739 0.16598 0.99044 0.00400
C 	C 	0.17066 0.17280 0.00405 -0.07200
C 	C 	0.13861 0.11350 0.01189 -0.02300
H 	H 	0.01689 0.87742 0.01445 0.03600
H 	H 	0.07469 0.99275 0.02451 0.04200
H 	H 	0.06554 0.97020 0.97631 0.04300
H 	H 	0.13125 0.09610 0.97421 0.04200
H 	H 	0.19216 0.21130 0.98428 0.03600
H 	H 	0.14034 0.11863 0.02240 0.04400
C 	C 	0.21702 0.04700 0.10135 -0.08600
C 	C 	0.20685 0.09966 0.10651 0.00900
C 	C 	0.20416 0.14826 0.09829 -0.06100
C 	C 	0.21187 0.14491 0.08482 0.01300
C 	C 	0.21849 0.08991 0.07952 0.00800
C 	C 	0.22039 0.04078 0.08781 -0.01300
C 	C 	0.22616 0.08656 0.06605 -0.05800
C 	C 	0.23099 0.13935 0.05798 0.00600
C 	C 	0.22810 0.19605 0.06329 -0.08200
C 	C 	0.21608 0.19742 0.07666 -0.02200
H 	H 	0.20236 0.10372 0.11692 0.03900
H 	H 	0.19775 0.18947 0.10244 0.04000
H 	H 	0.22756 0.99974 0.08379 0.02100
H 	H 	0.22997 0.04392 0.06185 0.04000
H 	H 	0.23825 0.13682 0.04762 0.04000
H 	H 	0.21301 0.24069 0.08078 0.02700
C 	C 	0.30994 0.59007 0.06706 -0.07500
C 	C 	0.31770 0.65067 0.06122 0.00500
C 	C 	0.31972 0.70362 0.06886 -0.06000
C 	C 	0.31359 0.69646 0.08243 0.01100
C 	C 	0.30736 0.63638 0.08838 0.01200
C 	C 	0.30600 0.58363 0.08067 -0.02300
C 	C 	0.30071 0.62902 0.10194 -0.06000
C 	C 	0.29812 0.67990 0.10951 0.00500
C 	C 	0.30258 0.73900 0.10360 -0.07600
C 	C 	0.31165 0.74770 0.09007 -0.02300
H 	H 	0.32180 0.65666 0.05075 0.03700
H 	H 	0.32512 0.74978 0.06420 0.03800
H 	H 	0.29985 0.53686 0.08521 0.03000
H 	H 	0.29652 0.58341 0.10662 0.03900
H 	H 	0.29206 0.67304 0.11994 0.03700
H 	H 	0.31495 0.79314 0.08547 0.02800
C 	C 	0.03550 0.22185 0.23273 -0.06900
C 	C 	0.08523 0.20924 0.22726 0.00400
C 	C 	0.13773 0.21279 0.23496 -0.05800
C 	C 	0.14121 0.22930 0.24820 0.01200
C 	C 	0.08867 0.23725 0.25393 0.00800
C 	C 	0.03551 0.23259 0.24618 -0.01000
C 	C 	0.09210 0.25368 0.26717 -0.05600
C 	C 	0.14929 0.26667 0.27447 0.00400
C 	C 	0.20362 0.26313 0.26862 -0.08000
C 	C 	0.19821 0.24166 0.25562 -0.02200
H 	H 	0.08443 0.19891 0.21695 0.04200
H 	H 	0.17686 0.20495 0.23053 0.04000
H 	H 	0.99658 0.24136 0.25045 0.01500
H 	H 	0.05140 0.25838 0.27174 0.04100
H 	H 	0.15205 0.28108 0.28461 0.04200
H 	H 	0.23960 0.23784 0.25112 0.03100
C 	C 	0.59039 0.33589 0.26719 -0.07500
C 	C 	0.64592 0.33627 0.27339 0.00500
C 	C 	0.69584 0.33207 0.26607 -0.05900
C 	C 	0.69071 0.32710 0.25247 0.01100
C 	C 	0.63569 0.32797 0.24616 0.01200
C 	C 	0.58597 0.33269 0.25354 -0.02400
C 	C 	0.63030 0.32257 0.23256 -0.06000
C 	C 	0.67830 0.31478 0.22529 0.00500
C 	C 	0.73251 0.31264 0.23153 -0.07600
C 	C 	0.73905 0.31978 0.24512 -0.02300
H 	H 	0.65035 0.33958 0.28388 0.03900
H 	H 	0.73812 0.33195 0.27100 0.03900
H 	H 	0.54303 0.33205 0.24872 0.02900
H 	H 	0.58853 0.32366 0.22762 0.03900
H 	H 	0.67314 0.31017 0.21482 0.03700
H 	H 	0.78063 0.31782 0.24997 0.02900
C 	C 	0.48710 0.48544 0.32536 -0.07500
C 	C 	0.51964 0.48932 0.33722 0.00400
C 	C 	0.55598 0.55264 0.34370 -0.05800
C 	C 	0.56023 0.61278 0.33838 0.01200
C 	C 	0.52932 0.60946 0.32626 0.01300
C 	C 	0.49331 0.54590 0.31977 -0.02000
C 	C 	0.53402 0.66957 0.32085 -0.05800
C 	C 	0.56886 0.73251 0.32744 0.00400
C 	C 	0.59908 0.73612 0.33954 -0.07200
C 	C 	0.59472 0.67618 0.34502 -0.01800
H 	H 	0.51517 0.44299 0.34161 0.02900
H 	H 	0.57998 0.55465 0.35293 0.04000
H 	H 	0.46920 0.54324 0.31051 0.03800
H 	H 	0.51063 0.66761 0.31155 0.04100
H 	H 	0.57226 0.77860 0.32315 0.02700
H 	H 	0.61884 0.67909 0.35429 0.04100
C 	C 	0.94081 0.10431 0.34719 -0.06100
C 	C 	0.99189 0.12982 0.35677 -0.01800
C 	C 	0.06042 0.16276 0.35323 -0.03700
C 	C 	0.07892 0.17007 0.34007 0.00000
C 	C 	0.02791 0.14273 0.33039 0.03400
C 	C 	0.95911 0.10991 0.33399 -0.04300
C 	C 	0.04639 0.14935 0.31724 -0.06600
C 	C 	0.11489 0.18419 0.31369 0.00900
C 	C 	0.16588 0.21328 0.32323 -0.07700
C 	C 	0.14775 0.20520 0.33644 -0.01400
H 	H 	0.97851 0.12428 0.36698 0.04000
H 	H 	0.09909 0.18283 0.36073 0.03700
H 	H 	0.92010 0.08966 0.32655 0.04400
H 	H 	0.00771 0.12793 0.30975 0.04600
H 	H 	0.12839 0.18893 0.30348 0.03300
H 	H 	0.18689 0.22740 0.34385 0.04100
C 	C 	0.49373 0.16235 0.32144 -0.07200
C 	C 	0.50576 0.12035 0.31286 0.00500
C 	C 	0.54088 0.08696 0.31710 -0.05800
C 	C 	0.56477 0.09547 0.32993 0.01200
C 	C 	0.55278 0.13761 0.33860 0.01400
C 	C 	0.51708 0.17061 0.33432 -0.02200
C 	C 	0.57739 0.14686 0.35139 -0.05900
C 	C 	0.61462 0.11554 0.35548 0.00500
C 	C 	0.62721 0.07411 0.34689 -0.07500
C 	C 	0.60144 0.06334 0.33417 -0.01900
H 	H 	0.48740 0.11306 0.30294 0.03600
H 	H 	0.54969 0.05470 0.31037 0.04000
H 	H 	0.50824 0.20335 0.34094 0.03600
H 	H 	0.56825 0.17882 0.35813 0.04000
H 	H 	0.63386 0.12361 0.36535 0.02500
H 	H 	0.61140 0.03158 0.32750 0.03500
C 	C 	0.09272 0.22369 0.42873 -0.08700
C 	C 	0.10533 0.24469 0.41565 0.00100
C 	C 	0.05604 0.20885 0.40618 -0.05100
C 	C 	0.99356 0.15180 0.40967 0.00300
C 	C 	0.98247 0.12768 0.42265 0.00100
C 	C 	0.03258 0.16322 0.43208 -0.00600
C 	C 	0.92012 0.07040 0.42613 -0.05600
C 	C 	0.86789 0.03958 0.41700 -0.00400
C 	C 	0.87749 0.06556 0.40426 -0.08100
C 	C 	0.94102 0.12040 0.40052 -0.01800
H 	H 	0.15213 0.29048 0.41290 0.01700
H 	H 	0.06566 0.22683 0.39619 0.04000
H 	H 	0.02370 0.14556 0.44209 0.04500
H 	H 	0.91144 0.05083 0.43601 0.03700
H 	H 	0.81923 0.99680 0.41993 0.02300
H 	H 	0.94896 0.13954 0.39061 0.04200
C 	C 	0.37928 0.60795 0.43388 -0.07700
C 	C 	0.43275 0.66615 0.43987 0.00600
C 	C 	0.47577 0.72425 0.43247 -0.05900
C 	C 	0.46607 0.72460 0.41899 0.01100
C 	C 	0.41224 0.66633 0.41292 0.01200
C 	C 	0.36894 0.60837 0.42040 -0.02200
C 	C 	0.40309 0.66640 0.39941 -0.06000
C 	C 	0.44777 0.72353 0.39195 0.00800
C 	C 	0.50171 0.78135 0.39793 -0.08100
C 	C 	0.51024 0.78196 0.41148 -0.02200
H 	H 	0.44084 0.66654 0.45025 0.03600
H 	H 	0.51687 0.76881 0.43722 0.03800
H 	H 	0.32802 0.56322 0.41574 0.02800
H 	H 	0.36176 0.62203 0.39467 0.04100
H 	H 	0.44048 0.72275 0.38153 0.03800
H 	H 	0.55224 0.82632 0.41612 0.02300
C 	C 	0.50441 0.49730 0.47994 -0.07200
C 	C 	0.53993 0.56838 0.47719 0.00200
C 	C 	0.60736 0.60916 0.48121 -0.05800
C 	C 	0.64013 0.57924 0.48802 0.01300
C 	C 	0.60562 0.50724 0.49035 0.01100
C 	C 	0.53786 0.46652 0.48628 -0.02000
C 	C 	0.63874 0.47726 0.49703 -0.05900
C 	C 	0.70457 0.51887 0.50185 0.00100
C 	C 	0.73787 0.59079 0.50005 -0.07600
C 	C 	0.70619 0.62065 0.49286 -0.02100
H 	H 	0.51470 0.59243 0.47223 0.03500
H 	H 	0.63366 0.66421 0.47924 0.04200
H 	H 	0.51100 0.41133 0.48817 0.04000
H 	H 	0.61308 0.42197 0.49873 0.04000
H 	H 	0.72876 0.49542 0.50735 0.02800
H 	H 	0.73237 0.67612 0.49129 0.04400
C 	C 	0.01914 0.90950 0.50765 -0.06800
C 	C 	0.04406 0.95964 0.51754 0.01100
C 	C 	0.08292 0.02974 0.51446 -0.06600
C 	C 	0.09734 0.05066 0.50144 0.01600
C 	C 	0.07476 0.00035 0.49147 0.00800
C 	C 	0.03607 0.92991 0.49463 -0.01500
C 	C 	0.08917 0.02129 0.47845 -0.06200
C 	C 	0.12302 0.09156 0.47530 0.00500
C 	C 	0.14308 0.14177 0.48513 -0.07300
C 	C 	0.13187 0.12120 0.49822 -0.02100
H 	H 	0.03246 0.94429 0.52764 0.03600
H 	H 	0.10076 0.06781 0.52219 0.04300
H 	H 	0.01733 0.89139 0.48697 0.04500
H 	H 	0.07297 0.98319 0.47074 0.04700
H 	H 	0.13257 0.10702 0.46519 0.03300
H 	H 	0.14755 0.15981 0.50584 0.04400
C 	C 	0.17291 0.45891 0.49334 -0.07900
C 	C 	0.21030 0.53086 0.49160 0.00400
C 	C 	0.18541 0.57302 0.49634 -0.06200
C 	C 	0.12290 0.54365 0.50292 0.02100
C 	C 	0.08640 0.47156 0.50515 -0.00000
C 	C 	0.11160 0.42951 0.50034 -0.01400
C 	C 	0.02437 0.44231 0.51188 -0.02700
C 	C 	0.99753 0.48389 0.51596 -0.02800
C 	C 	0.03217 0.55508 0.51330 -0.05500
C 	C 	0.09560 0.58512 0.50701 -0.02900
H 	H 	0.25766 0.55395 0.48623 0.02800
H 	H 	0.21419 0.62833 0.49470 0.04200
H 	H 	0.08316 0.37401 0.50185 0.04300
H 	H 	0.99636 0.38720 0.51378 0.02800
H 	H 	0.94885 0.46042 0.52089 0.03900
H 	H 	0.12315 0.64037 0.50518 0.04400
C 	C 	0.22227 0.02701 0.89840 -0.08000
C 	C 	0.16238 0.97463 0.89273 0.00500
C 	C 	0.10827 0.92877 0.90054 -0.05800
C 	C 	0.11358 0.93454 0.91413 0.01000
C 	C 	0.17195 0.98985 0.91985 0.01100
C 	C 	0.22578 0.03637 0.91194 -0.02000
C 	C 	0.17724 0.99559 0.93344 -0.06400
C 	C 	0.12731 0.94433 0.94127 0.01000
C 	C 	0.07141 0.88688 0.93561 -0.08500
C 	C 	0.06316 0.88368 0.92205 -0.01800
H 	H 	0.15851 0.96826 0.88226 0.04000
H 	H 	0.06312 0.88749 0.89604 0.04000
H 	H 	0.27163 0.07735 0.91633 0.02700
H 	H 	0.22102 0.03862 0.93794 0.04200
H 	H 	0.13299 0.94832 0.95175 0.03700
H 	H 	0.01954 0.83990 0.91766 0.02800
C 	C 	0.61545 0.32711 0.89776 -0.07500
C 	C 	0.66951 0.38347 0.89141 0.00400
C 	C 	0.72088 0.43718 0.89862 -0.05900
C 	C 	0.71878 0.43541 0.91226 0.01100
C 	C 	0.66570 0.37804 0.91869 0.01200
C 	C 	0.61449 0.32402 0.91142 -0.02400
C 	C 	0.66349 0.37630 0.93233 -0.06000
C 	C 	0.71245 0.43196 0.93953 0.00400
C 	C 	0.76444 0.49004 0.93319 -0.07500
C 	C 	0.76808 0.49106 0.91953 -0.02300
H 	H 	0.67144 0.38610 0.88089 0.03800
H 	H 	0.76176 0.48062 0.89358 0.03800
H 	H 	0.57290 0.28075 0.91638 0.03100
H 	H 	0.62334 0.33222 0.93737 0.03900
H 	H 	0.70967 0.43003 0.95005 0.03700
H 	H 	0.80802 0.53580 0.91459 0.03100
C 	C 	0.53112 0.41678 0.84470 -0.07200
C 	C 	0.60092 0.44957 0.84748 0.00300
C 	C 	0.64432 0.51682 0.84309 -0.05800
C 	C 	0.61824 0.55244 0.83600 0.01300
C 	C 	0.54774 0.52034 0.83344 0.01200
C 	C 	0.50450 0.45235 0.83772 -0.01900
C 	C 	0.52150 0.55662 0.82661 -0.05800
C 	C 	0.56501 0.62386 0.82219 0.00100
C 	C 	0.63527 0.65531 0.82445 -0.07600
C 	C 	0.66175 0.61964 0.83141 -0.02100
H 	H 	0.62171 0.42255 0.85291 0.03200
H 	H 	0.69821 0.54111 0.84519 0.04100
H 	H 	0.45040 0.42744 0.83573 0.04000
H 	H 	0.46748 0.53270 0.82465 0.04100
H 	H 	0.54426 0.65098 0.81678 0.02800
H 	H 	0.71597 0.64417 0.83325 0.04200
C 	C 	0.95215 0.93811 0.81932 -0.08400
C 	C 	0.00266 0.96231 0.80965 0.02600
C 	C 	0.07142 0.99779 0.81305 -0.05900
C 	C 	0.09065 0.00985 0.82617 0.00900
C 	C 	0.04019 0.98803 0.83593 0.02600
C 	C 	0.97113 0.95246 0.83246 -0.03100
C 	C 	0.05943 0.00052 0.84904 -0.06300
C 	C 	0.12805 0.03226 0.85249 0.00700
C 	C 	0.17838 0.05172 0.84287 -0.07400
C 	C 	0.15961 0.04185 0.82969 -0.01800
H 	H 	0.98863 0.95291 0.79948 0.02500
H 	H 	0.10967 0.01510 0.80548 0.04200
H 	H 	0.93246 0.93443 0.83997 0.04200
H 	H 	0.02122 0.98485 0.85660 0.04500
H 	H 	0.14210 0.04099 0.86267 0.03300
H 	H 	0.19825 0.05708 0.82222 0.04200
C 	C 	0.61189 0.96996 0.81711 -0.07200
C 	C 	0.58415 0.99475 0.80769 0.00700
C 	C 	0.54980 0.02976 0.81146 -0.06000
C 	C 	0.54252 0.04019 0.82469 0.01300
C 	C 	0.57064 0.01574 0.83420 0.01200
C 	C 	0.60509 0.98074 0.83036 -0.02000
C 	C 	0.56281 0.02547 0.84743 -0.05900
C 	C 	0.52551 0.05720 0.85122 0.00600
C 	C 	0.49634 0.08035 0.84185 -0.07600
C 	C 	0.50599 0.07312 0.82858 -0.01800
H 	H 	0.58956 0.98740 0.79744 0.03700
H 	H 	0.52859 0.04841 0.80409 0.04100
H 	H 	0.62585 0.96119 0.83767 0.03800
H 	H 	0.58454 0.00733 0.85480 0.04000
H 	H 	0.51811 0.06255 0.86147 0.01800
H 	H 	0.48313 0.09078 0.82134 0.03400
C 	C 	0.33740 0.72304 0.73078 -0.07900
C 	C 	0.39178 0.71955 0.72498 0.00700
C 	C 	0.44457 0.72335 0.73263 -0.06000
C 	C 	0.44384 0.73132 0.74616 0.01200
C 	C 	0.38873 0.73370 0.75208 0.01100
C 	C 	0.33549 0.72895 0.74437 -0.02200
C 	C 	0.38844 0.74252 0.76560 -0.05900
C 	C 	0.44309 0.75020 0.77316 0.00600
C 	C 	0.49837 0.74863 0.76731 -0.07800
C 	C 	0.49820 0.73845 0.75381 -0.02200
H 	H 	0.39340 0.71430 0.71453 0.03700
H 	H 	0.48644 0.72101 0.72801 0.03900
H 	H 	0.29371 0.73204 0.74887 0.02500
H 	H 	0.34621 0.74409 0.77024 0.03900
H 	H 	0.44238 0.75731 0.78357 0.03800
H 	H 	0.54107 0.73773 0.74924 0.02700
C 	C 	0.88024 0.84651 0.76206 -0.08400
C 	C 	0.86602 0.85147 0.74892 0.00100
C 	C 	0.90962 0.85283 0.73918 -0.05600
C 	C 	0.96774 0.84887 0.74245 -0.00100
C 	C 	0.98443 0.84804 0.75567 0.00600
C 	C 	0.94093 0.84768 0.76542 -0.01800
C 	C 	0.04267 0.84424 0.75893 -0.05300
C 	C 	0.08157 0.83680 0.74919 0.00500
C 	C 	0.06283 0.83345 0.73606 -0.09000
C 	C 	0.00756 0.84238 0.73270 0.00500
H 	H 	0.81991 0.85180 0.74622 0.01900
H 	H 	0.89704 0.85482 0.72908 0.03900
H 	H 	0.95313 0.84610 0.77557 0.04400
H 	H 	0.05665 0.84485 0.76903 0.04200
H 	H 	0.12476 0.83100 0.75188 0.01800
H 	H 	0.99426 0.84192 0.72255 0.03400
C 	C 	0.08140 0.60498 0.67632 -0.07400
C 	C 	0.04558 0.55243 0.68545 0.00300
C 	C 	0.01183 0.48315 0.68161 -0.04900
C 	C 	0.01285 0.46557 0.66855 0.01900
C 	C 	0.04967 0.51812 0.65933 0.01300
C 	C 	0.08449 0.58774 0.66329 -0.01800
C 	C 	0.04998 0.50044 0.64623 -0.05900
C 	C 	0.01374 0.43118 0.64231 0.01500
C 	C 	0.97698 0.37871 0.65145 -0.08000
C 	C 	0.97674 0.39620 0.66457 -0.02800
H 	H 	0.04318 0.56540 0.69552 0.02300
H 	H 	0.98408 0.44324 0.68878 0.03200
H 	H 	0.11196 0.62839 0.65623 0.03600
H 	H 	0.07807 0.54026 0.63907 0.04200
H 	H 	0.01485 0.41835 0.63218 0.03700
H 	H 	0.94796 0.35596 0.67163 0.03800
C 	C 	0.65838 0.04375 0.65678 -0.08600
C 	C 	0.62525 0.08243 0.65508 0.00800
C 	C 	0.55904 0.05737 0.65976 -0.07000
C 	C 	0.52555 0.99357 0.66627 0.02300
C 	C 	0.55961 0.95557 0.66836 0.00700
C 	C 	0.62578 0.98078 0.66356 -0.00900
C 	C 	0.52678 0.89252 0.67509 -0.05400
C 	C 	0.46031 0.86682 0.67958 0.00100
C 	C 	0.42555 0.90338 0.67727 -0.06900
C 	C 	0.45834 0.96700 0.67067 -0.02300
H 	H 	0.65008 0.13105 0.64986 0.02600
H 	H 	0.53368 0.08726 0.65821 0.04200
H 	H 	0.65171 0.95129 0.66501 0.04300
H 	H 	0.55263 0.86323 0.67682 0.04200
H 	H 	0.43547 0.81795 0.68473 0.03400
H 	H 	0.43189 0.99584 0.66905 0.04200
C 	C 	0.93727 0.00233 0.65392 -0.09100
C 	C 	0.96066 0.97395 0.64435 0.02600
C 	C 	0.99935 0.94326 0.64782 -0.09200
C 	C 	0.01577 0.94104 0.66088 0.04800
C 	C 	0.99480 0.97192 0.67051 -0.01700
C 	C 	0.95567 0.00251 0.66699 -0.01100
C 	C 	0.01192 0.97041 0.68356 -0.02600
C 	C 	0.04726 0.93622 0.68711 -0.01100
C 	C 	0.06569 0.90280 0.67767 -0.05900
C 	C 	0.05138 0.90684 0.66450 -0.03700
H 	H 	0.94853 0.97535 0.63421 0.03000
H 	H 	0.01601 0.92065 0.64033 0.05500
H 	H 	0.93848 0.02499 0.67441 0.03600
H 	H 	0.99701 0.99481 0.69100 0.02900
H 	H 	0.05930 0.93465 0.69726 0.04100
H 	H 	0.06588 0.88159 0.65715 0.04900
C 	C 	0.87525 0.98162 0.59901 -0.07600
C 	C 	0.87472 0.92364 0.60457 0.00400
C 	C 	0.88587 0.87856 0.59684 -0.06000
C 	C 	0.89736 0.89075 0.58345 0.01200
C 	C 	0.90213 0.95126 0.57796 0.00500
C 	C 	0.89171 0.99682 0.58581 -0.01300
C 	C 	0.91366 0.96345 0.56457 -0.04900
C 	C 	0.91572 0.91378 0.55657 0.00200
C 	C 	0.90650 0.85151 0.56186 -0.08100
C 	C 	0.90039 0.84149 0.57538 -0.02300
H 	H 	0.86401 0.91255 0.61482 0.04100
H 	H 	0.88358 0.83311 0.60120 0.03800
H 	H 	0.89313 0.04208 0.58152 0.02300
H 	H 	0.91897 0.01041 0.56030 0.03100
H 	H 	0.92256 0.92284 0.54618 0.04000
H 	H 	0.89426 0.79388 0.57952 0.02500
C 	C 	0.79541 0.29434 0.59790 -0.07700
C 	C 	0.79498 0.35122 0.60374 0.00500
C 	C 	0.79834 0.40476 0.59607 -0.06000
C 	C 	0.80258 0.40224 0.58248 0.01100
C 	C 	0.80188 0.34466 0.57654 0.01100
C 	C 	0.79793 0.29081 0.58427 -0.02300
C 	C 	0.80667 0.34238 0.56296 -0.06000
C 	C 	0.81361 0.39756 0.55534 0.00500
C 	C 	0.81545 0.45551 0.56120 -0.07600
C 	C 	0.80900 0.45724 0.57478 -0.02300
H 	H 	0.79225 0.35414 0.61421 0.03800
H 	H 	0.79838 0.44850 0.60072 0.03900
H 	H 	0.79863 0.24715 0.57973 0.02700
H 	H 	0.80574 0.29822 0.55830 0.03800
H 	H 	0.81776 0.39527 0.54488 0.03600
H 	H 	0.81075 0.50206 0.57935 0.02800
