data_crystal

_cell_length_a 49.40158
_cell_length_b 48.97521
_cell_length_c 28.36676
_cell_angle_alpha 89.99972
_cell_angle_beta  89.99971
_cell_angle_gamma 120.00061

_symmetry_space_group_name_	'P 1'
_symmetry_space_group_name_H-M	'P 1'

loop_
_symmetry_equiv_pos_as_xyz
  x,y,z

loop_
_atom_site_label
_atom_site_type_symbol
_atom_site_fract_x
_atom_site_fract_y
_atom_site_fract_z
_atom_site_charge
Ni	Ni	0.64304 0.54541 0.69047 1.10000
O 	O 	0.68889 0.56588 0.71011 -0.70300
Ni	Ni	0.70642 0.55120 0.65918 1.10200
O 	O 	0.63391 0.56494 0.74794 -0.37100
O 	O 	0.65288 0.54221 0.79907 -0.40400
O 	O 	0.65689 0.58603 0.65373 -0.40100
Ni	Ni	0.69529 0.55058 0.76994 1.06500
O 	O 	0.60135 0.50155 0.60215 -0.42000
O 	O 	0.67166 0.50415 0.75074 -0.40800
O 	O 	0.75168 0.57577 0.68044 -0.37800
O 	O 	0.65968 0.52659 0.64412 -0.70100
O 	O 	0.59759 0.52773 0.66742 -0.38000
O 	O 	0.72001 0.53997 0.59714 -0.37000
O 	O 	0.69099 0.55536 0.55405 -0.41000
Ni	Ni	0.64595 0.52972 0.58073 1.07200
H 	H 	0.69939 0.58919 0.71028 0.15700
H 	H 	0.65057 0.50397 0.65160 0.15400
C 	C 	0.68165 0.49262 0.71769 0.28700
O 	O 	0.64001 0.56843 0.57893 -0.39700
C 	C 	0.63956 0.55944 0.79137 0.27300
C 	C 	0.75905 0.57514 0.72507 0.27600
C 	C 	0.64337 0.58711 0.61463 0.30400
C 	C 	0.71005 0.54394 0.55613 0.27700
C 	C 	0.58609 0.51218 0.62731 0.29200
O 	O 	0.70373 0.51135 0.68829 -0.36700
O 	O 	0.73787 0.55457 0.75488 -0.40400
Ni	Ni	0.36587 0.49922 0.19181 1.09900
O 	O 	0.32031 0.47892 0.21306 -0.70400
Ni	Ni	0.30242 0.49489 0.16454 1.10100
O 	O 	0.37557 0.47858 0.24727 -0.37100
O 	O 	0.35745 0.50060 0.30100 -0.40500
O 	O 	0.35128 0.45912 0.15336 -0.40100
Ni	Ni	0.31493 0.49342 0.27436 1.06500
O 	O 	0.40656 0.54331 0.10263 -0.42000
O 	O 	0.33899 0.54018 0.25711 -0.40800
O 	O 	0.25746 0.47048 0.18722 -0.37800
O 	O 	0.34893 0.51912 0.14783 -0.70100
O 	O 	0.41095 0.51686 0.16701 -0.37900
O 	O 	0.28819 0.50778 0.10478 -0.37000
O 	O 	0.31584 0.49280 0.05750 -0.40900
Ni	Ni	0.36129 0.51662 0.08316 1.07100
H 	H 	0.30953 0.45560 0.21226 0.15700
H 	H 	0.35846 0.54167 0.15611 0.15400
C 	C 	0.32897 0.55254 0.22544 0.28700
O 	O 	0.36527 0.47686 0.07791 -0.39600
C 	C 	0.36990 0.48284 0.29134 0.27300
C 	C 	0.25075 0.47065 0.23226 0.27600
C 	C 	0.36405 0.45871 0.11312 0.30200
C 	C 	0.29729 0.50465 0.06258 0.27800
C 	C 	0.42161 0.53173 0.12619 0.29100
O 	O 	0.30627 0.53451 0.19638 -0.36700
O 	O 	0.27252 0.49048 0.26206 -0.40500
Ni	Ni	0.49555 0.14813 0.02719 1.09900
O 	O 	0.47500 0.17393 0.04561 -0.70300
Ni	Ni	0.48800 0.20474 0.99257 1.10000
O 	O 	0.47792 0.12111 0.08671 -0.37300
O 	O 	0.50051 0.16448 0.13495 -0.40500
O 	O 	0.45460 0.11937 0.99339 -0.40000
Ni	Ni	0.49131 0.19771 0.10376 1.06500
O 	O 	0.53614 0.14684 0.93659 -0.42000
O 	O 	0.53687 0.21985 0.08226 -0.40800
O 	O 	0.46380 0.22612 0.01336 -0.37700
O 	O 	0.51238 0.18207 0.97798 -0.70100
O 	O 	0.51340 0.11994 0.00551 -0.37800
O 	O 	0.49749 0.22790 0.92906 -0.37000
O 	O 	0.48161 0.18212 0.88880 -0.41100
Ni	Ni	0.50777 0.16322 0.91555 1.07200
H 	H 	0.45193 0.16093 0.04703 0.15800
H 	H 	0.53497 0.19595 0.98382 0.15300
C 	C 	0.54741 0.24033 0.04763 0.28700
O 	O 	0.46909 0.11880 0.91719 -0.39700
C 	C 	0.48346 0.13362 0.12931 0.27400
C 	C 	0.46578 0.23597 0.05727 0.27600
C 	C 	0.45324 0.10383 0.95513 0.30200
C 	C 	0.49295 0.21278 0.88894 0.27900
C 	C 	0.52631 0.12173 0.96369 0.29000
O 	O 	0.52807 0.24286 0.01853 -0.36700
O 	O 	0.48688 0.23611 0.08656 -0.40400
Ni	Ni	0.52897 0.91038 0.52775 1.09900
O 	O 	0.54793 0.88288 0.54434 -0.70400
Ni	Ni	0.53026 0.85020 0.49379 1.10000
O 	O 	0.55119 0.93892 0.58439 -0.37200
O 	O 	0.52875 0.89737 0.63609 -0.40500
O 	O 	0.56826 0.93578 0.48831 -0.40000
Ni	Ni	0.53406 0.86160 0.60486 1.06500
O 	O 	0.48469 0.91151 0.44259 -0.42000
O 	O 	0.48745 0.84081 0.58976 -0.40700
O 	O 	0.55336 0.82719 0.51199 -0.37800
O 	O 	0.50747 0.87477 0.48175 -0.70100
O 	O 	0.51259 0.94010 0.50766 -0.38000
O 	O 	0.51567 0.82470 0.43234 -0.37000
O 	O 	0.53152 0.86927 0.38871 -0.41000
Ni	Ni	0.50942 0.89165 0.41856 1.07100
H 	H 	0.57105 0.89467 0.54268 0.15700
H 	H 	0.48520 0.86230 0.49072 0.15400
C 	C 	0.47406 0.81963 0.55645 0.28700
O 	O 	0.54966 0.93480 0.41428 -0.39600
C 	C 	0.54656 0.92790 0.62790 0.27300
C 	C 	0.55399 0.81929 0.55637 0.27500
C 	C 	0.56850 0.95038 0.44950 0.30200
C 	C 	0.51885 0.83847 0.39131 0.27700
C 	C 	0.49758 0.93773 0.46767 0.29100
O 	O 	0.49093 0.81458 0.52563 -0.36700
O 	O 	0.53527 0.82133 0.58814 -0.40400
Ni	Ni	0.12506 0.67077 0.84505 1.09700
O 	O 	0.15028 0.71615 0.86942 -0.70000
Ni	Ni	0.18408 0.73706 0.82083 1.09900
O 	O 	0.10058 0.65389 0.90687 -0.37500
O 	O 	0.14573 0.67548 0.94971 -0.41700
O 	O 	0.09214 0.68183 0.82391 -0.38800
Ni	Ni	0.16778 0.72321 0.93291 1.06900
O 	O 	0.11511 0.63855 0.73820 -0.41600
O 	O 	0.20889 0.72363 0.92179 -0.39700
O 	O 	0.21122 0.78080 0.85055 -0.37300
O 	O 	0.15781 0.69203 0.79523 -0.69800
O 	O 	0.09906 0.62680 0.81550 -0.38100
O 	O 	0.21002 0.75374 0.76027 -0.36800
O 	O 	0.16591 0.73374 0.71543 -0.41000
Ni	Ni	0.13894 0.68639 0.73280 1.07100
H 	H 	0.13724 0.72624 0.86773 0.15400
H 	H 	0.17056 0.68162 0.79472 0.15000
C 	C 	0.21389 0.71125 0.88419 0.27800
O 	O 	0.10110 0.69176 0.74547 -0.40300
C 	C 	0.11513 0.65756 0.94726 0.27300
C 	C 	0.21322 0.78697 0.89633 0.29400
C 	C 	0.08156 0.67821 0.78064 0.29000
C 	C 	0.19654 0.74817 0.71869 0.28000
C 	C 	0.09310 0.62225 0.76970 0.28500
O 	O 	0.21520 0.72358 0.84265 -0.37500
O 	O 	0.18910 0.77072 0.92473 -0.41700
Ni	Ni	0.89233 0.38517 0.34876 1.09900
O 	O 	0.86351 0.33951 0.36902 -0.70400
Ni	Ni	0.83150 0.32389 0.31792 1.10100
O 	O 	0.92004 0.39218 0.40649 -0.37300
O 	O 	0.87874 0.37711 0.45704 -0.40600
O 	O 	0.91605 0.36778 0.31258 -0.40200
Ni	Ni	0.84232 0.33547 0.42852 1.06500
O 	O 	0.89450 0.42876 0.25985 -0.42000
O 	O 	0.82358 0.36248 0.40788 -0.40900
O 	O 	0.80713 0.27838 0.33986 -0.37700
O 	O 	0.85734 0.37087 0.30223 -0.70100
O 	O 	0.92331 0.43020 0.32507 -0.37800
O 	O 	0.80726 0.31157 0.25541 -0.37000
O 	O 	0.85253 0.33747 0.21344 -0.41000
Ni	Ni	0.87480 0.38332 0.23886 1.07200
H 	H 	0.87438 0.32715 0.36974 0.15700
H 	H 	0.84559 0.38182 0.30934 0.15500
C 	C 	0.80191 0.35343 0.37538 0.28800
O 	O 	0.91764 0.38585 0.23781 -0.39700
C 	C 	0.90889 0.38795 0.44983 0.27200
C 	C 	0.79896 0.27180 0.38459 0.27500
C 	C 	0.93143 0.38073 0.27372 0.30600
C 	C 	0.82189 0.32022 0.21469 0.27800
C 	C 	0.92037 0.44273 0.28520 0.29100
O 	O 	0.79670 0.33059 0.34591 -0.36700
O 	O 	0.80161 0.29424 0.41384 -0.40500
C 	C 	0.06595 0.59272 0.75400 -0.07800
C 	C 	0.06497 0.56394 0.76183 0.01400
C 	C 	0.04490 0.53736 0.73513 -0.04700
C 	C 	0.02559 0.53942 0.70064 0.00800
C 	C 	0.04458 0.59391 0.72274 0.00500
C 	C 	0.01025 0.51441 0.66491 0.10200
N 	N 	0.01056 0.52218 0.61890 -0.08200
C 	C 	0.92015 0.39771 0.53602 0.00600
C 	C 	0.93083 0.40420 0.48917 -0.07600
C 	C 	0.02432 0.56732 0.69647 -0.04500
C 	C 	0.93833 0.41772 0.57248 -0.04600
H 	H 	0.08122 0.56271 0.78619 0.03800
H 	H 	0.04576 0.51582 0.73928 0.05400
H 	H 	0.00879 0.56891 0.67106 0.05300
H 	H 	0.04505 0.61596 0.71657 0.03000
H 	H 	0.92906 0.41348 0.60801 0.05200
H 	H 	0.89721 0.37798 0.54393 0.02600
H 	H 	0.00240 0.46867 0.50863 0.05300
C 	C 	0.09729 0.63983 0.98906 -0.08500
C 	C 	0.11021 0.62764 0.02111 0.00800
C 	C 	0.09286 0.61014 0.06013 -0.04700
C 	C 	0.06248 0.60488 0.06767 0.00700
C 	C 	0.06715 0.63494 0.99689 0.00400
C 	C 	0.04332 0.58489 0.10733 0.10200
N 	N 	0.05713 0.58140 0.14655 -0.08300
N 	N 	0.03974 0.56279 0.18169 -0.08200
C 	C 	0.00805 0.54732 0.17876 0.10100
N 	N 	0.01164 0.56947 0.10457 -0.08300
C 	C 	0.94542 0.47406 0.27057 -0.08100
C 	C 	0.93777 0.49629 0.25368 0.01000
C 	C 	0.04992 0.61777 0.03608 -0.04500
H 	H 	0.13344 0.63119 0.01537 0.03900
H 	H 	0.10284 0.60023 0.08391 0.05400
H 	H 	0.02679 0.61445 0.04181 0.05300
H 	H 	0.05711 0.64462 0.97276 0.03700
H 	H 	0.02024 0.50771 0.23028 0.05400
H 	H 	0.95266 0.53813 0.21228 0.05200
H 	H 	0.91455 0.49280 0.25922 0.03600
C 	C 	0.43981 0.80091 0.55440 -0.08300
C 	C 	0.42263 0.78782 0.59580 0.01500
C 	C 	0.39024 0.77500 0.59586 -0.04800
C 	C 	0.37480 0.77558 0.55468 0.01000
C 	C 	0.42409 0.79929 0.51235 0.01000
C 	C 	0.34204 0.76792 0.55717 0.10100
N 	N 	0.32047 0.74086 0.57842 -0.08200
N 	N 	0.29291 0.73718 0.59132 -0.08200
C 	C 	0.28624 0.76057 0.58381 0.10100
N 	N 	0.30705 0.78678 0.55994 -0.08200
N 	N 	0.33450 0.79034 0.54665 -0.08200
C 	C 	0.26017 0.76026 0.60935 0.01100
C 	C 	0.24364 0.78295 0.67126 0.01900
C 	C 	0.21559 0.75425 0.67608 -0.09100
C 	C 	0.20869 0.72958 0.64443 0.01200
C 	C 	0.23099 0.73250 0.61137 -0.05200
C 	C 	0.39172 0.78703 0.51261 -0.04900
C 	C 	0.26576 0.78602 0.63782 -0.04900
H 	H 	0.43450 0.78851 0.62829 0.03500
H 	H 	0.37736 0.76605 0.62848 0.05400
H 	H 	0.37996 0.78724 0.48050 0.05000
H 	H 	0.43709 0.80884 0.47997 0.01900
H 	H 	0.28805 0.80773 0.63620 0.05600
H 	H 	0.24898 0.80233 0.69501 0.04000
H 	H 	0.22617 0.71267 0.58893 0.05000
H 	H 	0.18692 0.70743 0.64749 -0.00300
C 	C 	0.59412 0.98301 0.44159 -0.08200
C 	C 	0.62196 0.99518 0.46774 0.01300
C 	C 	0.64539 0.02662 0.46225 -0.04800
C 	C 	0.64125 0.04633 0.43071 0.00900
C 	C 	0.59028 0.00258 0.40933 0.01000
C 	C 	0.66556 0.07978 0.42609 0.10200
N 	N 	0.69630 0.08835 0.42693 -0.08300
N 	N 	0.71826 0.11861 0.42321 -0.08300
C 	C 	0.71011 0.14118 0.41879 0.10200
N 	N 	0.67937 0.13261 0.41806 -0.08100
N 	N 	0.65742 0.10235 0.42164 -0.08200
C 	C 	0.73436 0.17461 0.41358 0.00700
C 	C 	0.78263 0.21484 0.37773 0.00600
C 	C 	0.77816 0.23852 0.39774 -0.07700
C 	C 	0.75228 0.23006 0.42720 0.00800
C 	C 	0.73048 0.19828 0.43500 -0.04600
C 	C 	0.61363 0.03410 0.40413 -0.04800
C 	C 	0.76087 0.18305 0.38564 -0.04600
H 	H 	0.62543 0.98033 0.49244 0.03800
H 	H 	0.66655 0.03579 0.48307 0.05200
H 	H 	0.61025 0.04900 0.37941 0.05500
H 	H 	0.56893 0.99357 0.38901 0.03800
H 	H 	0.76419 0.16503 0.36901 0.05200
H 	H 	0.80266 0.22106 0.35533 0.03300
H 	H 	0.71040 0.19207 0.45726 0.05300
H 	H 	0.74851 0.24805 0.44291 0.04100
C 	C 	0.47915 0.11322 0.17017 -0.07700
C 	C 	0.47229 0.12079 0.21470 0.00700
C 	C 	0.47274 0.10433 0.25476 -0.04700
C 	C 	0.48034 0.08040 0.25065 0.00800
C 	C 	0.48520 0.08819 0.16587 0.01000
C 	C 	0.48380 0.06513 0.29307 0.10200
N 	N 	0.46041 0.05191 0.32532 -0.08200
N 	N 	0.46244 0.03569 0.36156 -0.08200
C 	C 	0.48808 0.03254 0.36684 0.10100
N 	N 	0.51188 0.04662 0.33537 -0.08200
N 	N 	0.50973 0.06261 0.29896 -0.08100
C 	C 	0.48821 0.01048 0.40205 0.00800
C 	C 	0.46413 0.95702 0.43229 0.01000
C 	C 	0.49260 0.96372 0.45307 -0.08100
C 	C 	0.51787 0.99472 0.45231 0.00800
C 	C 	0.51584 0.01794 0.42639 -0.04700
C 	C 	0.48594 0.07198 0.20595 -0.04500
C 	C 	0.46192 0.98032 0.40702 -0.04800
H 	H 	0.46731 0.13986 0.21841 0.02000
H 	H 	0.46813 0.11084 0.28908 0.05000
H 	H 	0.49135 0.05320 0.20234 0.05300
H 	H 	0.49049 0.08206 0.13175 0.04400
H 	H 	0.44031 0.97438 0.38904 0.05300
H 	H 	0.44417 0.93336 0.43378 0.03700
H 	H 	0.53608 0.04135 0.42373 0.05300
H 	H 	0.53968 0.00039 0.46937 0.03900
C 	C 	0.55273 0.94992 0.66727 -0.07600
C 	C 	0.54738 0.97534 0.66165 0.00900
C 	C 	0.54719 0.99248 0.70092 -0.04500
C 	C 	0.55268 0.98463 0.74610 0.00800
C 	C 	0.55993 0.94322 0.71217 0.00700
C 	C 	0.54845 0.99995 0.78783 0.10100
N 	N 	0.52193 0.00150 0.79291 -0.08100
N 	N 	0.51871 0.01686 0.82926 -0.08200
C 	C 	0.54198 0.03126 0.86148 0.10100
N 	N 	0.56830 0.02923 0.85685 -0.08200
N 	N 	0.57140 0.01361 0.82068 -0.08200
C 	C 	0.54029 0.05213 0.89736 0.00800
C 	C 	0.50826 0.06546 0.94651 0.01000
C 	C 	0.53281 0.09677 0.94917 -0.08100
C 	C 	0.56201 0.10487 0.92973 0.01100
C 	C 	0.56577 0.08262 0.90405 -0.04800
C 	C 	0.56002 0.96059 0.75141 -0.04700
C 	C 	0.51191 0.04326 0.92043 -0.04700
H 	H 	0.54192 0.98089 0.62722 0.04500
H 	H 	0.54201 0.01137 0.69636 0.05300
H 	H 	0.56461 0.95455 0.78610 0.05000
H 	H 	0.56448 0.92392 0.71689 0.02100
H 	H 	0.49228 0.01957 0.91649 0.05400
H 	H 	0.48579 0.05880 0.96208 0.03700
H 	H 	0.58794 0.08966 0.88704 0.05300
H 	H 	0.58134 0.12883 0.93242 0.03600
C 	C 	0.58121 0.26144 0.04264 -0.08300
C 	C 	0.59641 0.26108 0.00105 0.01200
C 	C 	0.62900 0.27517 0.00013 -0.04700
C 	C 	0.64658 0.29031 0.04048 0.01000
C 	C 	0.59892 0.27855 0.08174 0.01600
C 	C 	0.67962 0.29889 0.04340 0.10200
N 	N 	0.68786 0.27677 0.03448 -0.08200
N 	N 	0.71528 0.28097 0.04930 -0.08200
C 	C 	0.73533 0.30752 0.07322 0.10100
N 	N 	0.72815 0.33072 0.07868 -0.08200
N 	N 	0.70065 0.32642 0.06414 -0.08200
C 	C 	0.76087 0.30834 0.10107 0.01000
C 	C 	0.77632 0.28554 0.16427 0.01700
C 	C 	0.80367 0.31460 0.17121 -0.08900
C 	C 	0.81086 0.33966 0.14020 0.01100
C 	C 	0.78946 0.33660 0.10540 -0.05100
C 	C 	0.63148 0.29313 0.08056 -0.04800
C 	C 	0.75509 0.28236 0.12918 -0.04800
H 	H 	0.58294 0.24849 0.97030 0.01600
H 	H 	0.64045 0.27331 0.96872 0.04800
H 	H 	0.64483 0.30500 0.11178 0.05500
H 	H 	0.58740 0.27941 0.11374 0.03400
H 	H 	0.73327 0.26029 0.12584 0.05600
H 	H 	0.77082 0.26586 0.18747 0.04100
H 	H 	0.79446 0.35662 0.08329 0.05000
H 	H 	0.83211 0.36211 0.14487 0.00100
C 	C 	0.42895 0.07040 0.95150 -0.08300
C 	C 	0.42315 0.05008 0.98986 0.00700
C 	C 	0.39991 0.01838 0.98684 -0.04800
C 	C 	0.38199 0.00678 0.94566 0.00900
C 	C 	0.41135 0.05868 0.91002 0.01200
C 	C 	0.35686 0.97364 0.94302 0.10100
N 	N 	0.36208 0.95021 0.95731 -0.08200
N 	N 	0.33944 0.92017 0.95427 -0.08200
C 	C 	0.31086 0.91277 0.93733 0.10200
N 	N 	0.30556 0.93623 0.92349 -0.08200
N 	N 	0.32826 0.96624 0.92619 -0.08200
C 	C 	0.28635 0.87957 0.93159 0.00800
C 	C 	0.26963 0.82729 0.90064 0.01100
C 	C 	0.23856 0.81778 0.91234 -0.07800
C 	C 	0.23164 0.83893 0.93534 0.01000
C 	C 	0.25542 0.86974 0.94475 -0.04700
C 	C 	0.38787 0.02705 0.90720 -0.04800
C 	C 	0.29345 0.85800 0.91044 -0.04500
H 	H 	0.43681 0.05881 0.02187 0.04200
H 	H 	0.39556 0.00295 0.01674 0.05400
H 	H 	0.37432 0.01827 0.87511 0.05400
H 	H 	0.41555 0.07414 0.88022 0.04000
H 	H 	0.31725 0.86530 0.90021 0.05400
H 	H 	0.27523 0.81108 0.88308 0.04200
H 	H 	0.24973 0.88610 0.96160 0.05100
H 	H 	0.20772 0.83186 0.94447 0.03600
C 	C 	0.21758 0.45667 0.24562 -0.07700
C 	C 	0.20805 0.47298 0.27593 0.00800
C 	C 	0.17626 0.46227 0.28263 -0.04600
C 	C 	0.15367 0.43510 0.25925 0.00700
C 	C 	0.19496 0.42860 0.22421 0.00600
C 	C 	0.12040 0.42605 0.26172 0.10200
N 	N 	0.11193 0.44847 0.25952 -0.08100
N 	N 	0.08184 0.44029 0.25981 -0.08200
C 	C 	0.05934 0.40945 0.26237 0.10100
N 	N 	0.06779 0.38702 0.26485 -0.08300
N 	N 	0.09790 0.39520 0.26436 -0.08300
C 	C 	0.02607 0.40047 0.26290 0.00900
C 	C 	0.00523 0.37703 0.29391 -0.04900
C 	C 	0.16315 0.41785 0.23102 -0.04600
C 	C 	0.01526 0.41604 0.23347 -0.04900
H 	H 	0.22522 0.49460 0.29288 0.04100
H 	H 	0.16922 0.47546 0.30522 0.05300
H 	H 	0.14594 0.39673 0.21302 0.05200
H 	H 	0.20200 0.41557 0.20127 0.03300
H 	H 	0.03104 0.43391 0.20900 0.05400
H 	H 	0.01329 0.36484 0.31677 0.05200
C 	C 	0.22691 0.69011 0.88974 -0.08100
C 	C 	0.24402 0.69178 0.93025 0.01200
C 	C 	0.25481 0.67052 0.93646 -0.04800
C 	C 	0.24846 0.64727 0.90237 0.00900
C 	C 	0.22130 0.66739 0.85509 0.00700
C 	C 	0.25765 0.62333 0.91073 0.10200
N 	N 	0.28575 0.63166 0.93050 -0.08200
N 	N 	0.29251 0.60961 0.94357 -0.08200
C 	C 	0.27131 0.57858 0.93740 0.10100
N 	N 	0.24367 0.57032 0.91599 -0.08200
N 	N 	0.23697 0.59238 0.90273 -0.08300
C 	C 	0.27618 0.55440 0.96038 0.01000
C 	C 	0.31240 0.53908 0.99180 0.00800
C 	C 	0.28887 0.51715 0.02156 -0.08600
C 	C 	0.25830 0.51180 0.01724 0.01900
C 	C 	0.25195 0.53026 0.98667 -0.05000
C 	C 	0.23191 0.64601 0.86147 -0.04800
C 	C 	0.30613 0.55776 0.96147 -0.05000
H 	H 	0.24888 0.70943 0.95700 0.04100
H 	H 	0.26748 0.67167 0.96827 0.05400
H 	H 	0.22709 0.62834 0.83475 0.05100
H 	H 	0.20823 0.66592 0.82361 0.01900
H 	H 	0.32485 0.57577 0.94042 0.05000
H 	H 	0.33601 0.54312 0.99439 0.00300
H 	H 	0.22862 0.52707 0.98564 0.05600
H 	H 	0.23982 0.49450 0.03944 0.04100
C 	C 	0.50550 0.81900 0.34899 -0.08700
C 	C 	0.50983 0.79318 0.34099 0.01700
C 	C 	0.49138 0.77022 0.30789 -0.04800
C 	C 	0.46816 0.77270 0.28290 0.01000
C 	C 	0.48437 0.82301 0.32086 0.01000
C 	C 	0.44375 0.74511 0.25754 0.10100
N 	N 	0.45149 0.72670 0.23166 -0.08200
N 	N 	0.42950 0.69802 0.21806 -0.08200
C 	C 	0.39917 0.68687 0.23019 0.10100
N 	N 	0.39121 0.70604 0.25349 -0.08200
N 	N 	0.41317 0.73480 0.26679 -0.08200
C 	C 	0.37667 0.65293 0.22670 0.01000
C 	C 	0.35581 0.60385 0.18304 0.01100
C 	C 	0.34207 0.58683 0.22445 -0.08300
C 	C 	0.34405 0.60302 0.26623 0.01600
C 	C 	0.36107 0.63592 0.26728 -0.04800
C 	C 	0.46563 0.79985 0.28811 -0.05000
C 	C 	0.37334 0.63680 0.18427 -0.04900
H 	H 	0.52646 0.79014 0.36198 0.04100
H 	H 	0.49381 0.74955 0.30383 0.05600
H 	H 	0.44821 0.80233 0.26834 0.05000
H 	H 	0.48109 0.84306 0.32638 0.00300
H 	H 	0.38500 0.64972 0.15261 0.05000
H 	H 	0.35405 0.59155 0.15043 0.01900
H 	H 	0.36338 0.64814 0.30019 0.05500
H 	H 	0.33318 0.59007 0.29824 0.03400
C 	C 	0.37148 0.43346 0.10415 -0.08200
C 	C 	0.39453 0.43805 0.07106 0.01000
C 	C 	0.40349 0.41529 0.06541 -0.04800
C 	C 	0.38923 0.38753 0.09240 0.00900
C 	C 	0.35679 0.40539 0.13047 0.01300
C 	C 	0.39960 0.36414 0.08796 0.10200
N 	N 	0.43044 0.37376 0.08313 -0.08200
N 	N 	0.43994 0.35267 0.08072 -0.08100
C 	C 	0.41887 0.32134 0.08305 0.10200
N 	N 	0.38801 0.31170 0.08763 -0.08300
N 	N 	0.37852 0.33280 0.09018 -0.08200
C 	C 	0.42942 0.29802 0.08005 0.00700
C 	C 	0.46860 0.28311 0.09622 0.00800
C 	C 	0.45199 0.25587 0.06853 -0.07700
C 	C 	0.42340 0.24922 0.04820 0.00600
C 	C 	0.41216 0.27017 0.05395 -0.04600
C 	C 	0.36558 0.38255 0.12454 -0.04800
C 	C 	0.45740 0.30408 0.10187 -0.04600
H 	H 	0.40605 0.45956 0.05051 0.03700
H 	H 	0.42156 0.41929 0.04015 0.05500
H 	H 	0.35443 0.36127 0.14564 0.05300
H 	H 	0.33871 0.40132 0.15573 0.03800
H 	H 	0.47066 0.32521 0.12277 0.05300
H 	H 	0.49067 0.28857 0.11217 0.04100
H 	H 	0.39048 0.26515 0.03708 0.05300
H 	H 	0.41019 0.22813 0.02719 0.03500
C 	C 	0.71717 0.53186 0.51325 -0.08800
C 	C 	0.69293 0.51190 0.48268 0.01000
C 	C 	0.69797 0.49412 0.44886 -0.05100
C 	C 	0.72738 0.49641 0.44507 0.01000
C 	C 	0.74718 0.53607 0.50682 0.01700
C 	C 	0.73090 0.47280 0.41769 0.10100
N 	N 	0.75801 0.48127 0.39448 -0.08200
N 	N 	0.76416 0.45932 0.37863 -0.08200
C 	C 	0.74343 0.42828 0.38574 0.10100
N 	N 	0.71555 0.41979 0.40646 -0.08200
N 	N 	0.70934 0.44174 0.42208 -0.08300
C 	C 	0.75340 0.40478 0.37929 0.01000
C 	C 	0.78345 0.38633 0.33554 0.01200
C 	C 	0.78194 0.36767 0.37407 -0.08200
C 	C 	0.76445 0.36607 0.41394 0.01600
C 	C 	0.75005 0.38437 0.41643 -0.04800
C 	C 	0.75231 0.51854 0.47275 -0.04800
C 	C 	0.76944 0.40505 0.33828 -0.04900
H 	H 	0.66973 0.50872 0.48697 0.00200
H 	H 	0.67871 0.47762 0.42702 0.05000
H 	H 	0.77522 0.52082 0.46982 0.05600
H 	H 	0.76620 0.55183 0.52968 0.04100
H 	H 	0.77182 0.42040 0.30913 0.05100
H 	H 	0.79662 0.38744 0.30436 0.01700
H 	H 	0.73762 0.38385 0.44820 0.05400
H 	H 	0.76292 0.35148 0.44369 0.03300
C 	C 	0.04819 0.66762 0.77373 -0.08200
C 	C 	0.02565 0.64286 0.80123 0.00600
C 	C 	0.03872 0.68245 0.74052 0.00900
C 	C 	0.95120 0.63902 0.75946 0.10200
N 	N 	0.92879 0.60834 0.76486 -0.08200
N 	N 	0.89866 0.59986 0.76249 -0.08200
C 	C 	0.89003 0.62182 0.75479 0.10200
N 	N 	0.91244 0.65250 0.74926 -0.08300
N 	N 	0.94260 0.66099 0.75163 -0.08300
C 	C 	0.85663 0.61224 0.75119 0.00700
C 	C 	0.80244 0.57574 0.77139 0.00700
C 	C 	0.79251 0.58976 0.73745 -0.07700
C 	C 	0.81489 0.61618 0.71233 0.00600
C 	C 	0.84676 0.62731 0.71905 -0.04600
C 	C 	0.00705 0.67298 0.73560 -0.04800
C 	C 	0.83431 0.58692 0.77819 -0.04600
H 	H 	0.03265 0.63095 0.82648 0.04100
H 	H 	0.05587 0.70160 0.71906 0.04000
H 	H 	0.84163 0.57556 0.80391 0.05200
H 	H 	0.78552 0.55554 0.79142 0.04000
H 	H 	0.86372 0.64702 0.69824 0.05300
H 	H 	0.80758 0.62763 0.68674 0.03600
C 	C 	0.62247 0.56381 0.83053 -0.07600
C 	C 	0.63568 0.57108 0.87586 0.00700
C 	C 	0.61761 0.56997 0.91461 -0.04700
C 	C 	0.58614 0.56130 0.90839 0.00800
C 	C 	0.59148 0.55689 0.82407 0.01000
C 	C 	0.56610 0.55652 0.94953 0.10100
N 	N 	0.57469 0.57957 0.98237 -0.08300
N 	N 	0.55551 0.57602 0.01788 -0.08100
C 	C 	0.52739 0.54915 0.02186 0.10300
N 	N 	0.51921 0.52579 0.98968 -0.08300
N 	N 	0.53825 0.52945 0.95397 -0.08200
C 	C 	0.50438 0.54697 0.05692 0.00800
C 	C 	0.47275 0.56791 0.08838 0.01000
C 	C 	0.45259 0.53866 0.10938 -0.08100
C 	C 	0.46005 0.51454 0.10758 0.00800
C 	C 	0.48563 0.51853 0.08098 -0.04700
C 	C 	0.57337 0.55548 0.86285 -0.04500
C 	C 	0.49859 0.57207 0.06241 -0.04700
H 	H 	0.65964 0.57674 0.88124 0.02100
H 	H 	0.62777 0.57477 0.94959 0.05000
H 	H 	0.54923 0.54926 0.85759 0.05300
H 	H 	0.58100 0.55128 0.78931 0.04500
H 	H 	0.51311 0.59426 0.04451 0.05300
H 	H 	0.46766 0.58698 0.09051 0.03700
H 	H 	0.49025 0.49918 0.07780 0.05300
H 	H 	0.44509 0.49214 0.12463 0.03900
C 	C 	0.55472 0.50471 0.61196 -0.08200
C 	C 	0.53395 0.47466 0.59392 0.01000
C 	C 	0.50796 0.46974 0.56765 -0.04800
C 	C 	0.50264 0.49488 0.55894 0.00800
C 	C 	0.54764 0.52897 0.60734 0.00900
C 	C 	0.48005 0.49182 0.52250 0.10100
N 	N 	0.45196 0.46487 0.51893 -0.08200
N 	N 	0.43315 0.46052 0.48252 -0.08300
C 	C 	0.44210 0.48281 0.44835 0.10200
N 	N 	0.46994 0.50993 0.45231 -0.08200
N 	N 	0.48862 0.51439 0.48887 -0.08200
C 	C 	0.42204 0.47755 0.40709 0.00800
C 	C 	0.37270 0.46826 0.37455 0.00700
C 	C 	0.38622 0.47650 0.32950 -0.07700
C 	C 	0.41712 0.48314 0.32297 0.01000
C 	C 	0.43498 0.48381 0.36163 -0.04500
C 	C 	0.52184 0.52417 0.58058 -0.04700
C 	C 	0.39051 0.46869 0.41317 -0.04700
H 	H 	0.53882 0.45555 0.59821 0.03600
H 	H 	0.49306 0.44689 0.55175 0.05300
H 	H 	0.51753 0.54357 0.57505 0.05300
H 	H 	0.56317 0.55209 0.62195 0.03800
H 	H 	0.38019 0.46347 0.44805 0.05000
H 	H 	0.34875 0.46267 0.37992 0.01900
H 	H 	0.45913 0.49006 0.35644 0.05300
H 	H 	0.42780 0.48934 0.28837 0.04500
C 	C 	0.50503 0.23085 0.84508 -0.09000
C 	C 	0.52442 0.22512 0.81546 0.01100
C 	C 	0.54235 0.24704 0.78076 -0.05200
C 	C 	0.54080 0.27471 0.77516 0.01000
C 	C 	0.50141 0.25706 0.83665 0.01800
C 	C 	0.56506 0.30129 0.74791 0.10100
N 	N 	0.55763 0.32034 0.72306 -0.08200
N 	N 	0.58002 0.34856 0.70850 -0.08200
C 	C 	0.61045 0.35861 0.71860 0.10100
N 	N 	0.61799 0.33866 0.74045 -0.08200
N 	N 	0.59562 0.31036 0.75474 -0.08300
C 	C 	0.63369 0.39236 0.71528 0.01000
C 	C 	0.65407 0.44208 0.67352 0.01100
C 	C 	0.66883 0.45843 0.71494 -0.08300
C 	C 	0.66781 0.44158 0.75548 0.01600
C 	C 	0.65051 0.40868 0.75556 -0.04800
C 	C 	0.51909 0.27882 0.80167 -0.04900
C 	C 	0.63626 0.40914 0.67383 -0.04900
H 	H 	0.52709 0.20472 0.82125 -0.00000
H 	H 	0.55854 0.24327 0.75982 0.05000
H 	H 	0.51735 0.29986 0.79728 0.05600
H 	H 	0.48603 0.26138 0.85871 0.04100
H 	H 	0.62370 0.39675 0.64235 0.05000
H 	H 	0.65516 0.45490 0.64178 0.01800
H 	H 	0.64884 0.39596 0.78769 0.05400
H 	H 	0.67950 0.45400 0.78743 0.03400
C 	C 	0.56789 0.79929 0.56691 -0.07700
C 	C 	0.55655 0.77775 0.60459 0.00600
C 	C 	0.56715 0.75634 0.61103 -0.04600
C 	C 	0.58920 0.75621 0.57993 0.00700
C 	C 	0.59103 0.80008 0.53717 0.00600
C 	C 	0.59851 0.73202 0.58444 0.10200
N 	N 	0.60276 0.72286 0.62768 -0.08300
N 	N 	0.61031 0.70037 0.63176 -0.08300
C 	C 	0.61368 0.68628 0.59273 0.10100
N 	N 	0.60946 0.69546 0.54948 -0.08200
N 	N 	0.60201 0.71802 0.54540 -0.08100
C 	C 	0.62196 0.66134 0.59730 0.00900
C 	C 	0.65118 0.64010 0.63643 0.01300
C 	C 	0.63682 0.61318 0.60753 -0.08200
C 	C 	0.61521 0.61068 0.57314 0.01000
C 	C 	0.60785 0.63465 0.56804 -0.04800
C 	C 	0.60150 0.77856 0.54350 -0.04600
C 	C 	0.64376 0.66399 0.63135 -0.04800
H 	H 	0.53888 0.77692 0.62809 0.03800
H 	H 	0.55756 0.73928 0.63939 0.05200
H 	H 	0.61902 0.77914 0.51989 0.05200
H 	H 	0.60056 0.81703 0.50867 0.03800
H 	H 	0.65508 0.68463 0.65377 0.05200
H 	H 	0.66810 0.64256 0.66281 0.03800
H 	H 	0.59079 0.63220 0.54190 0.05400
H 	H 	0.60366 0.58993 0.55098 0.03800
H 	H 	0.00002 0.68462 0.70993 0.05300
H 	H 	0.95838 0.35203 0.32104 0.03800
C 	C 	0.95932 0.52187 0.22681 -0.04700
C 	C 	0.96127 0.42900 0.47999 0.00700
C 	C 	0.96344 0.38605 0.26792 -0.08300
C 	C 	0.96750 0.44423 0.56252 0.00700
H 	H 	0.97030 0.43382 0.44432 0.04700
C 	C 	0.97410 0.36989 0.29650 0.01400
C 	C 	0.97597 0.47957 0.26478 0.00900
H 	H 	0.97621 0.42133 0.21339 0.03700
H 	H 	0.97693 0.61446 0.81815 0.05400
C 	C 	0.97946 0.44890 0.51648 -0.04400
H 	H 	0.98243 0.46309 0.27895 0.03800
N 	N 	0.98342 0.46107 0.64455 -0.08300
C 	C 	0.98369 0.46890 0.59852 0.10300
C 	C 	0.98455 0.64852 0.76370 0.00700
C 	C 	0.98408 0.40874 0.23576 0.01100
C 	C 	0.98865 0.52535 0.21627 0.00800
C 	C 	0.99402 0.63334 0.79623 -0.04500
N 	N 	0.99429 0.55102 0.13975 -0.08300
N 	N 	0.99667 0.48353 0.67727 -0.08200
N 	N 	0.99746 0.49977 0.58622 -0.08200
C 	C 	0.99746 0.50497 0.23731 -0.04700
