data_crystal

_cell_length_a 41.62417
_cell_length_b 41.35518
_cell_length_c 20.43825
_cell_angle_alpha 91.57064
_cell_angle_beta  90.32103
_cell_angle_gamma 90.04148

_symmetry_space_group_name_	'P 1'
_symmetry_space_group_name_H-M	'P 1'

loop_
_symmetry_equiv_pos_as_xyz
  x,y,z

loop_
_atom_site_label
_atom_site_type_symbol
_atom_site_fract_x
_atom_site_fract_y
_atom_site_fract_z
_atom_site_charge
Cd	Cd	0.99645 0.87386 0.23305 1.24400
Cd	Cd	0.99948 0.92673 0.37172 1.18000
O 	O 	0.96683 0.82307 0.24725 -0.30000
O 	O 	0.98948 0.83426 0.15416 -0.31200
C 	C 	0.97443 0.81303 0.18874 0.31700
O 	O 	0.01765 0.91999 0.19423 -0.35400
O 	O 	0.03668 0.93686 0.29492 -0.43100
C 	C 	0.02960 0.94305 0.23357 0.30400
C 	C 	0.94233 0.91318 0.26299 0.32400
O 	O 	0.01563 0.87367 0.35565 -0.44100
O 	O 	0.93952 0.90019 0.20408 -0.25500
O 	O 	0.96538 0.90156 0.29814 -0.52600
C 	C 	0.04370 0.86411 0.33512 0.30800
O 	O 	0.04609 0.85862 0.27230 -0.31400
Cd	Cd	0.05618 0.88379 0.99664 1.23900
Cd	Cd	0.07057 0.93761 0.86969 1.19900
O 	O 	0.07619 0.82839 0.97885 -0.31800
O 	O 	0.05090 0.84265 0.06881 -0.31900
C 	C 	0.06299 0.81923 0.03259 0.34300
O 	O 	0.03994 0.93239 0.03830 -0.35300
O 	O 	0.03039 0.95310 0.93699 -0.42800
C 	C 	0.03254 0.95710 0.00109 0.32400
C 	C 	0.11780 0.91269 0.98598 0.29400
O 	O 	0.04379 0.88848 0.87005 -0.41500
O 	O 	0.11481 0.89917 0.04281 -0.23500
O 	O 	0.09520 0.90568 0.94413 -0.52100
C 	C 	0.01372 0.88401 0.88471 0.30600
O 	O 	0.00766 0.87814 0.94558 -0.34400
C 	C 	0.02647 0.69466 0.94980 0.17300
N 	N 	0.02186 0.66539 0.97666 -0.13600
C 	C 	0.01402 0.63929 0.93804 0.14500
N 	N 	0.01067 0.64262 0.87230 -0.14200
C 	C 	0.01373 0.67221 0.84567 0.13800
N 	N 	0.02209 0.69812 0.88437 -0.13300
C 	C 	0.98031 0.68442 0.25207 0.17000
N 	N 	0.98328 0.65435 0.22438 -0.13100
C 	C 	0.98485 0.62813 0.26283 0.14100
N 	N 	0.98339 0.63206 0.32891 -0.14300
C 	C 	0.98150 0.66211 0.35699 0.14000
N 	N 	0.98047 0.68836 0.31841 -0.13500
Cd	Cd	0.88276 0.99057 0.72078 1.24400
Cd	Cd	0.92859 0.98804 0.86813 1.19400
O 	O 	0.82601 0.97778 0.73755 -0.29700
O 	O 	0.84306 0.99496 0.64301 -0.31400
C 	C 	0.81894 0.98551 0.67829 0.31600
O 	O 	0.93191 0.01022 0.69388 -0.34400
O 	O 	0.95814 0.98487 0.77722 -0.43300
C 	C 	0.95813 0.00600 0.73024 0.28800
C 	C 	0.87837 0.04333 0.81265 0.30600
O 	O 	0.89843 0.94918 0.81062 -0.41800
O 	O 	0.86702 0.05068 0.75544 -0.27200
O 	O 	0.88688 0.01334 0.81847 -0.50900
C 	C 	0.90813 0.92982 0.76320 0.31900
O 	O 	0.90155 0.93884 0.70408 -0.34000
Cd	Cd	0.88890 0.06787 0.50632 1.24500
Cd	Cd	0.94463 0.08719 0.38035 1.19800
O 	O 	0.83303 0.07223 0.46852 -0.29800
O 	O 	0.84454 0.05214 0.56429 -0.31500
C 	C 	0.82252 0.05937 0.52131 0.31700
O 	O 	0.93712 0.05320 0.54842 -0.33700
O 	O 	0.96680 0.08499 0.48103 -0.41400
C 	C 	0.96488 0.06026 0.52031 0.30900
C 	C 	0.90244 0.02102 0.40598 0.32200
O 	O 	0.90428 0.11590 0.43319 -0.43600
O 	O 	0.88713 0.00834 0.45443 -0.26500
O 	O 	0.90494 0.05227 0.40831 -0.50900
C 	C 	0.90761 0.13419 0.48560 0.31800
O 	O 	0.89836 0.12135 0.54005 -0.33000
C 	C 	0.69177 0.98961 0.73187 0.16900
N 	N 	0.69610 0.98963 0.79790 -0.13300
C 	C 	0.67064 0.98517 0.83799 0.13300
N 	N 	0.64072 0.98187 0.81188 -0.14200
C 	C 	0.63618 0.98300 0.74612 0.13900
N 	N 	0.66173 0.98693 0.70611 -0.13200
C 	C 	0.70035 0.02186 0.43375 0.16900
N 	N 	0.67033 0.02012 0.45921 -0.13000
C 	C 	0.64500 0.01195 0.41989 0.14000
N 	N 	0.64961 0.00688 0.35466 -0.14100
C 	C 	0.67935 0.00968 0.32866 0.14100
N 	N 	0.70487 0.01637 0.36849 -0.13200
Cd	Cd	0.04976 0.15299 0.24954 1.24600
Cd	Cd	0.06602 0.10274 0.38387 1.17500
O 	O 	0.07088 0.20810 0.26373 -0.29800
O 	O 	0.04553 0.19272 0.17388 -0.31800
C 	C 	0.05902 0.21627 0.20786 0.31900
O 	O 	0.03515 0.10312 0.21211 -0.35200
O 	O 	0.02842 0.08288 0.31441 -0.45500
C 	C 	0.03342 0.07816 0.25129 0.29800
C 	C 	0.11170 0.12615 0.26348 0.31300
O 	O 	0.03881 0.15182 0.37685 -0.41500
O 	O 	0.10901 0.13861 0.20563 -0.25600
O 	O 	0.08837 0.13211 0.30344 -0.54300
C 	C 	0.00854 0.15669 0.36363 0.27100
O 	O 	0.00152 0.15978 0.30181 -0.35600
Cd	Cd	0.99042 0.16222 0.99866 1.23800
Cd	Cd	0.97681 0.11120 0.85940 1.18200
O 	O 	0.97227 0.21830 0.98732 -0.31700
O 	O 	0.99392 0.20193 0.07850 -0.31800
C 	C 	0.98288 0.22608 0.04536 0.34300
O 	O 	0.00191 0.11257 0.03467 -0.33100
O 	O 	0.01108 0.09046 0.93246 -0.43600
C 	C 	0.00454 0.08689 0.99487 0.25200
C 	C 	0.92813 0.13759 0.97421 0.29500
O 	O 	0.00643 0.15876 0.87342 -0.41100
O 	O 	0.92984 0.14955 0.03396 -0.24700
O 	O 	0.95262 0.14276 0.93739 -0.53200
C 	C 	0.03626 0.16187 0.89253 0.28300
O 	O 	0.04072 0.16611 0.95533 -0.35400
C 	C 	0.01315 0.35067 0.98308 0.12900
N 	N 	0.01698 0.38101 0.00910 -0.10500
C 	C 	0.02276 0.40611 0.96929 0.12600
N 	N 	0.02484 0.40080 0.90356 -0.14000
C 	C 	0.02080 0.37056 0.87742 0.13600
N 	N 	0.01511 0.34548 0.91723 -0.12900
C 	C 	0.04040 0.34324 0.28246 0.17200
N 	N 	0.04564 0.33891 0.34731 -0.13300
C 	C 	0.04519 0.36462 0.39001 0.14100
N 	N 	0.04010 0.39476 0.36746 -0.14200
C 	C 	0.03463 0.39922 0.30267 0.14100
N 	N 	0.03373 0.37322 0.26050 -0.12900
Cd	Cd	0.16104 0.06267 0.74473 1.24500
Cd	Cd	0.11097 0.08014 0.88266 1.19900
O 	O 	0.21806 0.06687 0.77411 -0.30100
O 	O 	0.20294 0.04832 0.67691 -0.31300
C 	C 	0.22650 0.05523 0.71740 0.31900
O 	O 	0.11118 0.04905 0.70863 -0.33800
O 	O 	0.08451 0.07978 0.78629 -0.41400
C 	C 	0.08454 0.05609 0.74168 0.30500
C 	C 	0.15148 0.01406 0.83888 0.31700
O 	O 	0.14859 0.11002 0.82755 -0.43600
O 	O 	0.16429 0.00236 0.78523 -0.27200
O 	O 	0.14923 0.04541 0.84259 -0.50700
C 	C 	0.14312 0.12847 0.77804 0.31800
O 	O 	0.15080 0.11615 0.72083 -0.32700
Cd	Cd	0.16420 0.99076 0.51385 1.24500
Cd	Cd	0.11339 0.99085 0.37245 1.18000
O 	O 	0.22056 0.98091 0.48565 -0.30000
O 	O 	0.20653 0.99421 0.58634 -0.31200
C 	C 	0.22953 0.98677 0.54551 0.31600
O 	O 	0.11542 0.00752 0.55204 -0.33700
O 	O 	0.08722 0.98399 0.46641 -0.43900
C 	C 	0.08842 0.00422 0.51725 0.28900
C 	C 	0.16289 0.04610 0.43432 0.29900
O 	O 	0.14695 0.95194 0.41592 -0.43300
O 	O 	0.17683 0.05239 0.49040 -0.24900
O 	O 	0.15546 0.01597 0.42357 -0.53200
C 	C 	0.13973 0.93077 0.45960 0.30700
O 	O 	0.14822 0.93776 0.51975 -0.32200
C 	C 	0.35153 0.02130 0.78208 0.17000
N 	N 	0.34898 0.01807 0.84790 -0.13300
C 	C 	0.37550 0.01182 0.88446 0.13200
N 	N 	0.40471 0.00994 0.85539 -0.14100
C 	C 	0.40743 0.01420 0.78996 0.14000
N 	N 	0.38074 0.01918 0.75313 -0.12900
C 	C 	0.35604 0.99572 0.48207 0.17000
N 	N 	0.38657 0.99626 0.50587 -0.13400
C 	C 	0.41171 0.99885 0.46421 0.14000
N 	N 	0.40627 0.99997 0.39874 -0.14300
C 	C 	0.37589 0.99802 0.37462 0.14100
N 	N 	0.35073 0.99635 0.41637 -0.13300
C 	C 	0.37298 0.00927 0.95632 -0.02600
C 	C 	0.35290 0.98588 0.98488 0.07600
C 	C 	0.35018 0.98526 0.05337 -0.04900
C 	C 	0.36866 0.00607 0.09380 -0.01700
C 	C 	0.38949 0.02880 0.06529 0.11000
C 	C 	0.39104 0.03046 0.99678 -0.08600
N 	N 	0.33724 0.96319 0.94721 -0.19400
H 	H 	0.33451 0.96768 0.07535 0.06500
C 	C 	0.36756 0.00232 0.16586 0.00900
N 	N 	0.40813 0.04893 0.10320 -0.19900
H 	H 	0.40652 0.04824 0.97488 0.05900
C 	C 	0.38535 0.97744 0.19392 -0.09100
C 	C 	0.38611 0.97395 0.26208 0.11200
C 	C 	0.37035 0.99705 0.30307 -0.04900
C 	C 	0.35137 0.02108 0.27496 -0.04300
C 	C 	0.34939 0.02366 0.20655 0.07700
H 	H 	0.39844 0.96054 0.16256 0.06500
N 	N 	0.40120 0.94797 0.28768 -0.19900
H 	H 	0.33867 0.03828 0.30634 0.06800
N 	N 	0.33031 0.04674 0.18044 -0.19300
H 	H 	0.41408 0.93190 0.25743 0.09700
H 	H 	0.39888 0.94248 0.33699 0.10400
H 	H 	0.31753 0.06280 0.21088 0.10700
H 	H 	0.32748 0.04862 0.12991 0.10700
H 	H 	0.42325 0.06574 0.08166 0.10100
H 	H 	0.40805 0.04800 0.15417 0.09900
H 	H 	0.34199 0.96015 0.89736 0.11800
H 	H 	0.32130 0.94705 0.96846 0.10400
C 	C 	0.31653 0.96769 0.55181 0.08700
C 	C 	0.32861 0.99663 0.52714 -0.05800
C 	C 	0.31018 0.02492 0.53294 0.08700
C 	C 	0.27724 0.02277 0.54677 0.10500
C 	C 	0.26360 0.99253 0.56099 -0.09700
C 	C 	0.28391 0.96567 0.56922 0.10900
Br	Br	0.26602 0.92510 0.59564 -0.14700
Br	Br	0.34421 0.93062 0.55855 -0.17600
Br	Br	0.25000 0.05974 0.53453 -0.13900
Br	Br	0.32986 0.06627 0.51854 -0.16700
C 	C 	0.26697 0.01113 0.72253 0.10900
C 	C 	0.25943 0.04333 0.70711 -0.09400
C 	C 	0.28444 0.06609 0.70122 0.10900
C 	C 	0.31605 0.05780 0.71887 0.08600
C 	C 	0.32254 0.02682 0.74238 -0.05500
C 	C 	0.29884 0.00271 0.73745 0.08400
Br	Br	0.31005 0.95834 0.75284 -0.17400
Br	Br	0.23323 0.97981 0.73274 -0.16000
Br	Br	0.35006 0.08932 0.71418 -0.17400
Br	Br	0.27459 0.10976 0.67701 -0.14100
C 	C 	0.04608 0.35940 0.46130 -0.04300
C 	C 	0.06689 0.37765 0.50315 0.10800
C 	C 	0.06263 0.37691 0.57126 -0.08300
C 	C 	0.03930 0.35684 0.59827 -0.00400
C 	C 	0.02036 0.33649 0.55662 0.08500
C 	C 	0.02370 0.33827 0.48843 -0.05000
N 	N 	0.09147 0.39516 0.47844 -0.19900
H 	H 	0.07767 0.39184 0.60336 0.06100
C 	C 	0.03371 0.35866 0.66996 -0.00400
N 	N 	0.99898 0.31528 0.58167 -0.19600
H 	H 	0.00822 0.32377 0.45639 0.07100
C 	C 	0.00878 0.37825 0.69434 -0.07800
C 	C 	0.00285 0.38084 0.76188 0.10900
C 	C 	0.02341 0.36485 0.80600 -0.04300
C 	C 	0.04797 0.34477 0.78158 -0.05000
C 	C 	0.05318 0.34125 0.71385 0.08100
H 	H 	0.99358 0.39111 0.66053 0.05700
N 	N 	0.97695 0.39793 0.78381 -0.20000
H 	H 	0.06340 0.33218 0.81541 0.06700
N 	N 	0.07674 0.32111 0.69141 -0.19400
H 	H 	0.96266 0.41068 0.75116 0.09400
H 	H 	0.96987 0.39753 0.83269 0.10200
H 	H 	0.09124 0.30869 0.72423 0.10600
H 	H 	0.08063 0.31716 0.64142 0.10400
H 	H 	0.98462 0.30087 0.55053 0.10600
H 	H 	0.99693 0.31230 0.63202 0.10300
H 	H 	0.09758 0.39325 0.42901 0.10600
H 	H 	0.10584 0.40967 0.50938 0.09600
C 	C 	0.09120 0.18238 0.87163 -0.05000
C 	C 	0.06197 0.17029 0.84636 -0.08500
C 	C 	0.06104 0.15896 0.78070 0.10800
C 	C 	0.08989 0.15049 0.74970 -0.03300
C 	C 	0.11905 0.15415 0.78401 -0.10100
C 	C 	0.11984 0.17472 0.83972 0.11800
Br	Br	0.15998 0.18850 0.87762 -0.20200
H 	H 	0.09195 0.19503 0.91866 0.09200
H 	H 	0.08934 0.13832 0.70206 0.08800
Br	Br	0.02216 0.16031 0.73002 -0.24200
C 	C 	0.97150 0.28409 0.06929 0.12000
C 	C 	0.99425 0.25932 0.05875 -0.10900
C 	C 	0.02608 0.26759 0.04231 0.11900
C 	C 	0.03374 0.29983 0.02903 0.07200
C 	C 	0.00923 0.32300 0.02609 -0.01800
C 	C 	0.97889 0.31601 0.05220 0.07300
Br	Br	0.94717 0.34970 0.06138 -0.16400
Br	Br	0.92938 0.27358 0.10106 -0.13300
Br	Br	0.07743 0.31206 0.01109 -0.15000
Br	Br	0.05774 0.23429 0.02773 -0.16400
C 	C 	0.15435 0.12436 0.34543 -0.04500
C 	C 	0.14147 0.11184 0.28668 -0.10500
C 	C 	0.14840 0.07973 0.26839 0.10500
C 	C 	0.15824 0.05828 0.31614 -0.06300
C 	C 	0.16282 0.06953 0.38112 -0.11400
C 	C 	0.16371 0.10337 0.39431 0.10600
Br	Br	0.17599 0.12179 0.47824 -0.17700
H 	H 	0.15243 0.15004 0.35683 0.07600
H 	H 	0.16085 0.03280 0.30349 0.03400
Br	Br	0.14324 0.06474 0.17948 -0.20800
C 	C 	0.07495 0.27303 0.18891 0.11100
C 	C 	0.05026 0.25026 0.19800 -0.09500
C 	C 	0.01943 0.26121 0.21686 0.11100
C 	C 	0.01471 0.29401 0.23414 0.08400
C 	C 	0.04103 0.31522 0.23671 -0.05400
C 	C 	0.07023 0.30563 0.20802 0.08600
Br	Br	0.10427 0.33673 0.19889 -0.17600
Br	Br	0.11636 0.25874 0.15778 -0.13700
Br	Br	0.97275 0.30957 0.25878 -0.16400
Br	Br	0.98500 0.23074 0.22836 -0.17900
C 	C 	0.61196 0.01266 0.44589 -0.04100
C 	C 	0.60272 0.99377 0.49970 0.10500
C 	C 	0.57024 0.99296 0.51807 -0.08700
C 	C 	0.54666 0.00787 0.47996 -0.00200
C 	C 	0.55598 0.02732 0.42733 0.07800
C 	C 	0.58864 0.03046 0.41261 -0.05000
N 	N 	0.62442 0.97532 0.53189 -0.19900
H 	H 	0.56300 0.97846 0.55887 0.05700
C 	C 	0.51231 0.00111 0.49248 -0.00000
N 	N 	0.53372 0.04239 0.38980 -0.19400
H 	H 	0.59584 0.04566 0.37281 0.05900
C 	C 	0.49350 0.02511 0.52329 -0.08900
C 	C 	0.45983 0.02300 0.52202 0.11300
C 	C 	0.44492 0.99651 0.48864 -0.05400
C 	C 	0.46378 0.97052 0.46591 -0.04800
C 	C 	0.49740 0.97274 0.46631 0.06800
H 	H 	0.50495 0.04667 0.54369 0.05900
N 	N 	0.44207 0.04669 0.55181 -0.20100
H 	H 	0.45221 0.94951 0.44321 0.05400
N 	N 	0.51508 0.94811 0.43959 -0.19400
H 	H 	0.45334 0.06642 0.57535 0.10100
H 	H 	0.41708 0.04528 0.55392 0.12000
H 	H 	0.50375 0.92748 0.41979 0.09300
H 	H 	0.54011 0.94901 0.43834 0.09400
H 	H 	0.54095 0.05700 0.35162 0.09500
H 	H 	0.50912 0.03938 0.39707 0.09700
H 	H 	0.64755 0.97143 0.51406 0.11800
H 	H 	0.61761 0.96298 0.57357 0.10400
C 	C 	0.43940 0.01438 0.75945 -0.04200
C 	C 	0.46428 0.03429 0.78540 0.10700
C 	C 	0.49607 0.02839 0.76633 -0.08700
C 	C 	0.50311 0.00466 0.71818 0.00400
C 	C 	0.47772 0.98746 0.68653 0.07200
C 	C 	0.44604 0.99228 0.70801 -0.05300
N 	N 	0.45770 0.05947 0.82741 -0.19900
H 	H 	0.51546 0.04216 0.78932 0.06000
C 	C 	0.53713 0.99551 0.70715 -0.01300
N 	N 	0.48362 0.96620 0.63608 -0.19400
H 	H 	0.42669 0.97806 0.68607 0.06700
C 	C 	0.54805 0.96566 0.72949 -0.08400
C 	C 	0.58105 0.95929 0.73437 0.10400
C 	C 	0.60333 0.98373 0.71936 -0.05200
C 	C 	0.59256 0.01185 0.68946 -0.05100
C 	C 	0.55955 0.01810 0.68338 0.07800
H 	H 	0.53085 0.94782 0.74528 0.05900
N 	N 	0.59123 0.92975 0.75345 -0.20000
H 	H 	0.60983 0.02986 0.67468 0.06600
N 	N 	0.54957 0.04589 0.65562 -0.19500
H 	H 	0.57466 0.91216 0.76690 0.09400
H 	H 	0.61554 0.92354 0.75241 0.10400
H 	H 	0.56627 0.06224 0.63760 0.09700
H 	H 	0.52522 0.05139 0.65105 0.09200
H 	H 	0.46485 0.95289 0.61433 0.09800
H 	H 	0.50659 0.96350 0.61648 0.09100
H 	H 	0.43411 0.06689 0.83631 0.10400
H 	H 	0.47634 0.07307 0.84885 0.09200
C 	C 	0.67481 0.98748 0.91010 -0.03100
C 	C 	0.69916 0.96999 0.94267 0.07900
C 	C 	0.70347 0.97467 0.01061 -0.04500
C 	C 	0.68180 0.99361 0.04745 -0.02100
C 	C 	0.65658 0.00995 0.01530 0.11300
C 	C 	0.65394 0.00743 0.94681 -0.08100
N 	N 	0.71729 0.94754 0.90994 -0.19400
H 	H 	0.72264 0.96207 0.03539 0.06700
C 	C 	0.68520 0.99548 0.11993 0.00300
N 	N 	0.63467 0.02780 0.04978 -0.19800
H 	H 	0.63529 0.02080 0.92203 0.06200
C 	C 	0.69865 0.02337 0.14960 -0.08000
C 	C 	0.69679 0.02881 0.21771 0.11200
C 	C 	0.68389 0.00437 0.25738 -0.04000
C 	C 	0.67276 0.97539 0.22792 -0.05000
C 	C 	0.67260 0.97094 0.15951 0.07800
H 	H 	0.70862 0.04192 0.11917 0.07200
N 	N 	0.70605 0.05796 0.24403 -0.19900
H 	H 	0.66321 0.95659 0.25829 0.06200
N 	N 	0.65982 0.94338 0.13229 -0.19300
H 	H 	0.71681 0.07519 0.21474 0.10800
H 	H 	0.70120 0.06455 0.29259 0.11300
H 	H 	0.65056 0.92546 0.16198 0.09900
H 	H 	0.65879 0.93943 0.08169 0.10000
H 	H 	0.61649 0.04020 0.02546 0.10100
H 	H 	0.63497 0.02908 0.10084 0.09800
H 	H 	0.71125 0.93939 0.86269 0.11000
H 	H 	0.73643 0.93625 0.93348 0.10300
C 	C 	0.96088 0.15540 0.51589 -0.03500
C 	C 	0.93103 0.16057 0.48571 -0.10000
C 	C 	0.93021 0.18135 0.43263 0.12200
C 	C 	0.95785 0.18477 0.39501 -0.05300
C 	C 	0.98642 0.16956 0.41443 -0.09500
C 	C 	0.98904 0.15978 0.47981 0.10200
Br	Br	0.02994 0.15779 0.52311 -0.24300
H 	H 	0.96207 0.14416 0.56311 0.08600
H 	H 	0.95639 0.19648 0.34839 0.09400
Br	Br	0.89024 0.19864 0.40264 -0.18800
C 	C 	0.03025 0.99788 0.54234 -0.05100
C 	C 	0.05767 0.01786 0.54233 -0.07500
C 	C 	0.05368 0.05157 0.55046 0.09400
C 	C 	0.02265 0.06489 0.55251 -0.05000
C 	C 	0.99534 0.04521 0.54313 -0.07700
C 	C 	0.99924 0.01131 0.54171 0.12000
Br	Br	0.96285 0.98279 0.53591 -0.27300
H 	H 	0.03302 0.97184 0.53863 0.06300
H 	H 	0.01981 0.09076 0.55844 0.07700
Br	Br	0.09008 0.08011 0.55423 -0.30000
C 	C 	0.78357 0.01423 0.50201 0.10900
C 	C 	0.78956 0.04644 0.52354 -0.09300
C 	C 	0.76369 0.06832 0.52924 0.11000
C 	C 	0.73306 0.05941 0.50521 0.08500
C 	C 	0.72822 0.02834 0.47699 -0.05400
C 	C 	0.75248 0.00494 0.48183 0.08400
Br	Br	0.74316 0.96034 0.45921 -0.16200
Br	Br	0.81849 0.98410 0.49160 -0.15600
Br	Br	0.69834 0.09025 0.50771 -0.17000
Br	Br	0.77112 0.11157 0.56374 -0.14400
C 	C 	0.02673 0.06448 0.71393 -0.04900
C 	C 	0.05303 0.04326 0.71801 -0.07700
C 	C 	0.04757 0.00969 0.71105 0.12600
C 	C 	0.01602 0.99784 0.70526 -0.05100
C 	C 	0.98956 0.01898 0.70931 -0.07500
C 	C 	0.99515 0.05256 0.71031 0.09400
Br	Br	0.96003 0.08263 0.70979 -0.35000
H 	H 	0.03076 0.09029 0.71622 0.06700
H 	H 	0.01199 0.97197 0.70194 0.07700
Br	Br	0.08247 0.97943 0.71402 -0.27900
C 	C 	0.87359 0.10010 0.85344 -0.03900
C 	C 	0.87946 0.06753 0.86708 -0.11100
C 	C 	0.88979 0.05962 0.93050 0.09600
C 	C 	0.90212 0.08410 0.97217 -0.08200
C 	C 	0.90222 0.11626 0.95208 -0.10300
C 	C 	0.88451 0.12445 0.89641 0.10900
Br	Br	0.87828 0.16889 0.87481 -0.20200
H 	H 	0.86237 0.10656 0.80765 0.08900
H 	H 	0.91295 0.07798 0.01856 0.09000
Br	Br	0.88033 0.01826 0.96607 -0.32000
C 	C 	0.77054 0.02044 0.67775 0.10800
C 	C 	0.78533 0.99088 0.65937 -0.09700
C 	C 	0.76594 0.96376 0.64392 0.10900
C 	C 	0.73298 0.96449 0.65898 0.08600
C 	C 	0.71970 0.99243 0.68865 -0.05800
C 	C 	0.73733 0.02133 0.68954 0.08700
Br	Br	0.71608 0.06173 0.70939 -0.16400
Br	Br	0.79636 0.05802 0.69826 -0.15200
Br	Br	0.70647 0.92692 0.64237 -0.18300
Br	Br	0.78549 0.92430 0.61141 -0.14600
C 	C 	0.99405 0.59648 0.23445 -0.05300
C 	C 	0.97043 0.57457 0.21052 0.11000
C 	C 	0.97733 0.54132 0.20763 -0.09400
C 	C 	0.00746 0.52993 0.22768 0.00300
C 	C 	0.03236 0.55234 0.24278 0.07000
C 	C 	0.02544 0.58553 0.24494 -0.04300
N 	N 	0.94100 0.58520 0.19162 -0.20100
H 	H 	0.95849 0.52417 0.19462 0.06100
C 	C 	0.01093 0.49537 0.24356 -0.00500
N 	N 	0.06262 0.54216 0.25703 -0.19400
H 	H 	0.04397 0.60269 0.25989 0.06000
C 	C 	0.02725 0.47447 0.19997 -0.08400
C 	C 	0.03702 0.44368 0.21955 0.11100
C 	C 	0.02596 0.43185 0.28004 -0.04500
C 	C 	0.00674 0.45174 0.32053 -0.04400
C 	C 	0.00025 0.48378 0.30429 0.08000
H 	H 	0.03518 0.48335 0.15338 0.05800
N 	N 	0.05861 0.42677 0.18250 -0.19900
H 	H 	0.99755 0.44253 0.36595 0.05500
N 	N 	0.98419 0.50337 0.34759 -0.19600
H 	H 	0.06397 0.43402 0.13519 0.10600
H 	H 	0.07261 0.40855 0.20237 0.12000
H 	H 	0.97610 0.49439 0.39189 0.09200
H 	H 	0.98004 0.52773 0.33858 0.09500
H 	H 	0.08064 0.55891 0.26922 0.09500
H 	H 	0.06876 0.51771 0.25510 0.09400
H 	H 	0.93575 0.60986 0.19044 0.11400
H 	H 	0.92334 0.56877 0.17569 0.09900
C 	C 	0.01067 0.60707 0.96707 -0.07100
C 	C 	0.98733 0.58470 0.94347 0.11700
C 	C 	0.99039 0.55197 0.95846 -0.12000
C 	C 	0.01366 0.54200 0.00356 0.02500
C 	C 	0.03372 0.56536 0.03515 0.06700
C 	C 	0.03276 0.59755 0.01503 -0.01500
N 	N 	0.96117 0.59475 0.90959 -0.20100
H 	H 	0.97426 0.53428 0.93588 0.06300
C 	C 	0.01912 0.50688 0.01160 0.02200
N 	N 	0.05380 0.55708 0.08465 -0.19100
H 	H 	0.04970 0.61500 0.03573 0.06900
C 	C 	0.04774 0.49306 0.98811 -0.11800
C 	C 	0.05103 0.45937 0.98214 0.11600
C 	C 	0.02462 0.43935 0.99654 -0.07300
C 	C 	0.99745 0.45288 0.02678 -0.02500
C 	C 	0.99444 0.48658 0.03469 0.06100
H 	H 	0.06714 0.50858 0.97274 0.06300
N 	N 	0.07954 0.44635 0.96283 -0.20300
H 	H 	0.97782 0.43731 0.04079 0.06400
N 	N 	0.96781 0.49926 0.06378 -0.19200
H 	H 	0.09862 0.46128 0.94985 0.09400
H 	H 	0.08348 0.42142 0.96336 0.10300
H 	H 	0.94958 0.48412 0.08011 0.09700
H 	H 	0.96526 0.52415 0.07192 0.09400
H 	H 	0.06902 0.57434 0.10674 0.10000
H 	H 	0.05361 0.53387 0.10337 0.09300
H 	H 	0.95494 0.61918 0.90899 0.09900
H 	H 	0.94524 0.57792 0.88833 0.09100
C 	C 	0.98542 0.66626 0.42898 -0.05000
C 	C 	0.96508 0.68696 0.46661 0.11200
C 	C 	0.97096 0.69141 0.53414 -0.08400
C 	C 	0.99464 0.67328 0.56578 -0.00400
C 	C 	0.01359 0.65104 0.52880 0.07800
C 	C 	0.00965 0.64878 0.46052 -0.04300
N 	N 	0.93908 0.70132 0.43916 -0.19900
H 	H 	0.95611 0.70801 0.56267 0.06500
C 	C 	0.99824 0.67666 0.63818 -0.00900
N 	N 	0.03523 0.63152 0.55846 -0.19400
H 	H 	0.02514 0.63282 0.43192 0.05700
C 	C 	0.97430 0.66402 0.67822 -0.08000
C 	C 	0.97763 0.66529 0.74669 0.10300
C 	C 	0.00684 0.67640 0.77521 -0.03700
C 	C 	0.03027 0.69022 0.73549 -0.05300
C 	C 	0.02575 0.69146 0.66731 0.08600
H 	H 	0.95271 0.65377 0.65611 0.06000
N 	N 	0.95226 0.65737 0.78468 -0.19800
H 	H 	0.05217 0.69981 0.75753 0.06400
N 	N 	0.04783 0.70676 0.63029 -0.19500
H 	H 	0.93154 0.64718 0.76357 0.09500
H 	H 	0.95191 0.66351 0.83454 0.10300
H 	H 	0.06856 0.71668 0.65188 0.10300
H 	H 	0.04418 0.70990 0.58029 0.10400
H 	H 	0.04979 0.61595 0.53052 0.09300
H 	H 	0.03710 0.63072 0.60932 0.09600
H 	H 	0.93089 0.69451 0.39245 0.11200
H 	H 	0.92539 0.71800 0.46636 0.10400
C 	C 	0.04332 0.01086 0.05462 -0.03400
C 	C 	0.02089 0.98790 0.03110 -0.07300
C 	C 	0.98957 0.99835 0.01688 0.10700
C 	C 	0.98324 0.03149 0.01089 -0.02700
C 	C 	0.00776 0.05436 0.02234 -0.05800
C 	C 	0.03740 0.04403 0.04791 0.13200
Br	Br	0.07102 0.07449 0.06817 -0.23600
H 	H 	0.06583 0.00309 0.07548 0.07900
H 	H 	0.95984 0.03926 0.99411 0.00200
Br	Br	0.95554 0.96752 0.00462 -0.31300
C 	C 	0.95760 0.87118 0.85364 -0.03600
C 	C 	0.98814 0.88183 0.83468 -0.08600
C 	C 	0.99106 0.89790 0.77503 0.10600
C 	C 	0.96355 0.91035 0.74548 -0.03200
C 	C 	0.93346 0.90624 0.77470 -0.10200
C 	C 	0.93018 0.88395 0.82472 0.12500
Br	Br	0.88857 0.87209 0.85621 -0.19300
H 	H 	0.95514 0.85553 0.89496 0.09400
H 	H 	0.96579 0.92493 0.70248 0.07500
Br	Br	0.03126 0.90007 0.72981 -0.26000
C 	C 	0.17174 0.97009 0.90834 -0.02600
C 	C 	0.14840 0.99395 0.89667 -0.12200
C 	C 	0.11993 0.99418 0.93343 0.09700
C 	C 	0.11608 0.97144 0.98191 -0.10300
C 	C 	0.13480 0.94346 0.98051 -0.09000
C 	C 	0.16451 0.94418 0.94854 0.11300
Br	Br	0.19392 0.90874 0.95445 -0.19900
H 	H 	0.19429 0.97025 0.88210 0.08400
H 	H 	0.09457 0.97179 0.01052 0.07500
Br	Br	0.08265 0.01712 0.90453 -0.48900
C 	C 	0.07268 0.76016 0.04088 0.11400
C 	C 	0.05062 0.78584 0.03601 -0.09800
C 	C 	0.01843 0.77897 0.01762 0.13300
C 	C 	0.00947 0.74718 0.99981 0.06700
C 	C 	0.03308 0.72327 0.99215 -0.07200
C 	C 	0.06418 0.72895 0.01726 0.10800
Br	Br	0.09528 0.69446 0.01709 -0.16200
Br	Br	0.11493 0.76826 0.07670 -0.12800
Br	Br	0.96494 0.73637 0.98458 -0.18500
Br	Br	0.98781 0.81326 0.00711 -0.15800
C 	C 	0.00676 0.99466 0.19296 -0.04700
C 	C 	0.03390 0.97650 0.21030 -0.07800
C 	C 	0.06300 0.99288 0.22300 0.08900
C 	C 	0.06320 0.02666 0.23204 -0.04900
C 	C 	0.03486 0.04458 0.22415 -0.09000
C 	C 	0.00684 0.02856 0.20153 0.14000
Br	Br	0.96804 0.05222 0.18582 -0.25600
H 	H 	0.98494 0.98239 0.17719 0.08000
H 	H 	0.08499 0.03874 0.24839 0.01500
Br	Br	0.10271 0.96949 0.22587 -0.34400
C 	C 	0.95327 0.96942 0.29765 -0.05500
C 	C 	0.93080 0.94607 0.27739 -0.11100
C 	C 	0.89789 0.95259 0.28485 0.13300
C 	C 	0.88826 0.98063 0.31944 -0.02600
C 	C 	0.91139 0.00145 0.34829 -0.10500
C 	C 	0.94395 0.99673 0.33338 0.11300
Br	Br	0.97694 0.02395 0.37031 -0.44600
H 	H 	0.97842 0.96439 0.29285 -0.02200
H 	H 	0.86296 0.98470 0.32886 0.08300
Br	Br	0.86599 0.92241 0.25329 -0.17400
C 	C 	0.12751 0.88517 0.38352 -0.03900
C 	C 	0.12078 0.90199 0.44229 -0.09200
C 	C 	0.09193 0.89549 0.47529 0.11400
C 	C 	0.06797 0.87749 0.44321 -0.05300
C 	C 	0.07222 0.86707 0.37792 -0.09200
C 	C 	0.10348 0.86715 0.35160 0.12700
Br	Br	0.11480 0.84035 0.27705 -0.15300
H 	H 	0.15085 0.88759 0.36090 0.07900
H 	H 	0.04499 0.87425 0.46684 0.05200
Br	Br	0.08375 0.91262 0.56192 -0.20300
C 	C 	0.95178 0.72613 0.18774 0.08900
C 	C 	0.98075 0.71299 0.21075 -0.05700
C 	C 	0.00943 0.73033 0.20389 0.09000
C 	C 	0.00830 0.76339 0.19000 0.10600
C 	C 	0.97851 0.77807 0.17557 -0.09500
C 	C 	0.95097 0.75852 0.16798 0.11200
Br	Br	0.91183 0.77684 0.13477 -0.13300
Br	Br	0.91328 0.70026 0.18583 -0.17700
Br	Br	0.04633 0.78933 0.20228 -0.15400
Br	Br	0.05009 0.70895 0.21555 -0.16500
