data_crystal

_cell_length_a 46.15529
_cell_length_b 44.95088
_cell_length_c 25.13861
_cell_angle_alpha 94.22122
_cell_angle_beta  94.18533
_cell_angle_gamma 89.98693

_symmetry_space_group_name_	'P 1'
_symmetry_space_group_name_H-M	'P 1'

loop_
_symmetry_equiv_pos_as_xyz
  x,y,z

loop_
_atom_site_label
_atom_site_type_symbol
_atom_site_fract_x
_atom_site_fract_y
_atom_site_fract_z
_atom_site_charge
C 	C 	0.95435 0.70919 0.86034 0.12800
N 	N 	0.95924 0.68109 0.87533 -0.13600
C 	C 	0.97183 0.66060 0.84213 0.13300
N 	N 	0.97891 0.66796 0.79332 -0.14200
C 	C 	0.97365 0.69585 0.77774 0.13400
N 	N 	0.96139 0.71647 0.81131 -0.13300
C 	C 	0.99626 0.67992 0.29769 0.12500
N 	N 	0.99060 0.68905 0.34863 -0.13400
C 	C 	0.99775 0.67151 0.38916 0.13400
N 	N 	0.01045 0.64470 0.37877 -0.14200
C 	C 	0.01506 0.63489 0.32771 0.13100
N 	N 	0.00772 0.65244 0.28707 -0.14100
O 	O 	0.81982 0.13430 0.68764 -0.24800
Cd	Cd	0.03185 0.97673 0.73499 1.25000
Cd	Cd	0.99252 0.99798 0.84858 1.24400
O 	O 	0.07012 0.93936 0.74757 -0.29300
O 	O 	0.06015 0.95751 0.66986 -0.32000
C 	C 	0.07716 0.94086 0.69880 0.27500
O 	O 	0.99491 0.00446 0.70194 -0.32000
O 	O 	0.98889 0.02953 0.78314 -0.36200
C 	C 	0.97923 0.02189 0.73339 0.40600
C 	C 	0.98782 0.93825 0.76470 0.41500
O 	O 	0.04114 0.00090 0.83327 -0.40000
O 	O 	0.99530 0.93004 0.71660 -0.23700
O 	O 	0.00377 0.95892 0.79075 -0.51300
C 	C 	0.05372 0.02320 0.81362 0.38100
O 	O 	0.05806 0.01947 0.76285 -0.30700
Cd	Cd	0.06412 0.94998 0.50035 1.24800
O 	O 	0.11431 0.93302 0.49270 -0.29900
O 	O 	0.09938 0.95130 0.56937 -0.32600
C 	C 	0.12059 0.93999 0.54319 0.27100
O 	O 	0.02336 0.97332 0.52431 -0.33300
C 	C 	0.99919 0.97305 0.49242 0.39900
C 	C 	0.07036 0.99828 0.43464 0.39600
O 	O 	0.08400 0.00355 0.48174 -0.24000
O 	O 	0.06041 0.97131 0.42454 -0.49700
C 	C 	0.27859 0.92706 0.83507 0.12300
N 	N 	0.30441 0.92971 0.81299 -0.13700
C 	C 	0.32957 0.93185 0.84459 0.13200
N 	N 	0.32926 0.92816 0.89767 -0.14300
C 	C 	0.30364 0.92473 0.91985 0.13200
N 	N 	0.27831 0.92535 0.88885 -0.14000
C 	C 	0.30310 0.92200 0.40745 0.12300
N 	N 	0.33159 0.92006 0.42473 -0.14200
C 	C 	0.35228 0.91875 0.38892 0.13100
N 	N 	0.34445 0.91867 0.33585 -0.14300
C 	C 	0.31600 0.91966 0.31831 0.13200
N 	N 	0.29535 0.92204 0.35418 -0.13600
C 	C 	0.30756 0.91681 0.26038 -0.04600
C 	C 	0.31869 0.89346 0.22695 0.10600
C 	C 	0.31635 0.89526 0.17133 -0.08400
C 	C 	0.30119 0.91874 0.14844 -0.00400
C 	C 	0.28690 0.94004 0.18159 0.07800
C 	C 	0.29079 0.93925 0.23747 -0.05100
N 	N 	0.33087 0.86894 0.24791 -0.19800
H 	H 	0.32625 0.87827 0.14574 0.05800
C 	C 	0.30127 0.92122 0.08991 -0.00200
N 	N 	0.26973 0.96136 0.16014 -0.19400
H 	H 	0.28138 0.95656 0.26309 0.05900
C 	C 	0.28479 0.90084 0.05515 -0.08100
C 	C 	0.28669 0.90034 0.99958 0.10400
C 	C 	0.30327 0.92256 0.97821 -0.05300
C 	C 	0.31933 0.94332 0.01299 -0.04100
C 	C 	0.31920 0.94233 0.06867 0.07100
H 	H 	0.27150 0.88437 0.07155 0.06200
N 	N 	0.27379 0.87771 0.96742 -0.19900
H 	H 	0.33217 0.96019 0.99666 0.04800
N 	N 	0.33651 0.96146 0.10136 -0.19300
H 	H 	0.26016 0.86254 0.98310 0.09400
H 	H 	0.27870 0.87370 0.92766 0.09800
H 	H 	0.34917 0.97734 0.08525 0.09000
H 	H 	0.33813 0.96039 0.14278 0.09300
H 	H 	0.25997 0.97752 0.18493 0.10000
H 	H 	0.26523 0.96164 0.11888 0.10100
H 	H 	0.32955 0.86511 0.28814 0.09900
H 	H 	0.34036 0.85251 0.22328 0.09100
C 	C 	0.19621 0.91535 0.57073 -0.04000
C 	C 	0.21038 0.93878 0.54857 0.02500
C 	C 	0.19617 0.96630 0.54544 -0.05400
C 	C 	0.16679 0.96869 0.55560 0.02700
C 	C 	0.15101 0.94290 0.56430 -0.06500
C 	C 	0.16625 0.91693 0.57603 0.00800
C 	C 	0.23580 0.93239 0.51647 0.01500
C 	C 	0.23310 0.91060 0.47334 -0.04000
C 	C 	0.25552 0.90597 0.43916 -0.00100
C 	C 	0.28060 0.92420 0.44647 -0.01800
C 	C 	0.28378 0.94535 0.49052 -0.01800
C 	C 	0.26162 0.94944 0.52566 -0.02600
C 	C 	0.25294 0.88194 0.39759 0.09100
C 	C 	0.26529 0.97161 0.57021 0.08800
C 	C 	0.21203 0.88920 0.58584 0.09300
C 	C 	0.15251 0.99718 0.55339 0.09200
N 	N 	0.25088 0.86270 0.36430 -0.10500
N 	N 	0.26815 0.98951 0.60573 -0.10500
N 	N 	0.14111 0.02006 0.55174 -0.06400
H 	H 	0.20727 0.98511 0.53123 0.06500
H 	H 	0.21330 0.89745 0.46606 0.06100
H 	H 	0.30323 0.95908 0.49676 0.04800
C 	C 	0.14876 0.90285 0.69829 -0.03600
C 	C 	0.16716 0.92761 0.71317 0.02600
C 	C 	0.15658 0.95644 0.70654 -0.05400
C 	C 	0.12707 0.96086 0.69259 0.03100
C 	C 	0.10770 0.93632 0.68712 -0.05400
C 	C 	0.11900 0.90733 0.68615 0.01000
C 	C 	0.19629 0.92387 0.74124 0.01400
C 	C 	0.22090 0.93510 0.71972 -0.04200
C 	C 	0.24776 0.93688 0.74975 -0.00300
C 	C 	0.25072 0.92501 0.80075 -0.01600
C 	C 	0.22631 0.91208 0.82055 -0.01900
C 	C 	0.19905 0.91272 0.79243 -0.02200
C 	C 	0.27139 0.95255 0.72926 0.09200
C 	C 	0.17378 0.90332 0.81770 0.09600
C 	C 	0.16026 0.87294 0.69523 0.09800
C 	C 	0.11662 0.99075 0.68606 0.09500
N 	N 	0.29036 0.96509 0.71294 -0.10500
N 	N 	0.15355 0.89581 0.83792 -0.09800
N 	N 	0.10829 0.01471 0.68073 -0.06300
N 	N 	0.16951 0.84899 0.69276 -0.10600
H 	H 	0.10441 0.88830 0.67915 0.05600
H 	H 	0.17105 0.97550 0.71465 0.06400
H 	H 	0.21876 0.94401 0.68067 0.05400
H 	H 	0.22832 0.90238 0.85889 0.05300
H 	H 	0.00449 0.34743 0.66382 0.10500
C 	C 	0.03555 0.08476 0.91471 0.28800
C 	C 	0.05533 0.07884 0.81174 0.28300
C 	C 	0.05293 0.05347 0.84088 -0.20200
C 	C 	0.04534 0.05716 0.89416 0.26100
F 	F 	0.04640 0.03372 0.92537 -0.39900
F 	F 	0.02610 0.08733 0.96473 -0.36300
C 	C 	0.05243 0.07557 0.39238 0.25900
C 	C 	0.04056 0.06926 0.33982 -0.21800
C 	C 	0.04069 0.03982 0.31675 0.28800
C 	C 	0.05148 0.01674 0.34694 0.26400
C 	C 	0.06143 0.02282 0.40096 -0.21100
C 	C 	0.06247 0.05257 0.42302 0.29100
F 	F 	0.07248 0.05916 0.47468 -0.36300
F 	F 	0.05250 0.98859 0.32358 -0.46500
F 	F 	0.02932 0.03340 0.26585 -0.38000
C 	C 	0.44350 0.91210 0.40250 -0.00400
N 	N 	0.45160 0.92790 0.29555 -0.19400
C 	C 	0.43070 0.93852 0.42245 -0.08500
C 	C 	0.40044 0.94036 0.42457 0.10400
C 	C 	0.38299 0.91518 0.40694 -0.05100
C 	C 	0.39625 0.88763 0.39537 -0.05100
C 	C 	0.42650 0.88582 0.39308 0.07300
N 	N 	0.38825 0.96650 0.44204 -0.20000
H 	H 	0.38287 0.86799 0.38443 0.05100
N 	N 	0.43893 0.85910 0.38001 -0.19400
H 	H 	0.40123 0.98531 0.45320 0.09200
H 	H 	0.36597 0.96818 0.44627 0.09800
H 	H 	0.42610 0.83997 0.37115 0.08900
H 	H 	0.46145 0.85688 0.38008 0.09200
H 	H 	0.45403 0.93544 0.25776 0.08800
H 	H 	0.43060 0.92366 0.30592 0.09400
C 	C 	0.44216 0.95825 0.77548 -0.00500
C 	C 	0.45201 0.98575 0.75920 0.07300
C 	C 	0.48185 0.99252 0.76480 -0.05400
C 	C 	0.41142 0.95417 0.78720 -0.00400
N 	N 	0.43296 0.00569 0.73849 -0.19400
H 	H 	0.48930 0.01448 0.75661 0.05600
C 	C 	0.40051 0.97162 0.82974 -0.08400
C 	C 	0.37266 0.96628 0.84591 0.10600
C 	C 	0.35657 0.94124 0.82242 -0.04700
C 	C 	0.36691 0.92450 0.77849 -0.04900
C 	C 	0.39388 0.93129 0.75962 0.07300
H 	H 	0.41367 0.98960 0.85003 0.05900
N 	N 	0.36114 0.98578 0.88255 -0.20000
H 	H 	0.35403 0.90605 0.75911 0.05500
H 	H 	0.37379 0.00317 0.90197 0.09200
H 	H 	0.33913 0.98511 0.88947 0.09900
H 	H 	0.44022 0.02643 0.72845 0.09200
H 	H 	0.41100 0.00029 0.73015 0.09600
C 	C 	0.97436 0.99170 0.50733 -0.17700
N 	N 	0.64527 0.07909 0.52343 -0.10600
F 	F 	0.81845 0.18395 0.81962 -0.38800
C 	C 	0.61178 0.02267 0.61970 0.09400
N 	N 	0.61003 0.01781 0.57374 -0.11000
N 	N 	0.69791 0.15279 0.63159 -0.08700
C 	C 	0.04902 0.59641 0.28872 0.10500
N 	N 	0.06622 0.61807 0.27242 -0.19900
H 	H 	0.08414 0.61237 0.25073 0.09300
H 	H 	0.06281 0.64062 0.28291 0.10200
H 	H 	0.00666 0.64849 0.92771 0.06200
C 	C 	0.97890 0.70286 0.72283 -0.04600
C 	C 	0.00584 0.69615 0.70131 0.10900
C 	C 	0.00781 0.69538 0.64577 -0.08300
C 	C 	0.98387 0.70293 0.61192 -0.00300
C 	C 	0.95806 0.71320 0.63419 0.08000
C 	C 	0.95568 0.71264 0.68949 -0.04800
N 	N 	0.02993 0.69102 0.73377 -0.19800
H 	H 	0.02792 0.68858 0.62877 0.06000
C 	C 	0.98500 0.69693 0.55336 -0.00500
C 	C 	0.97140 0.67118 0.52831 -0.08200
C 	C 	0.97358 0.66362 0.47360 0.10500
C 	C 	0.99118 0.68125 0.44424 -0.04500
C 	C 	0.00396 0.70756 0.46879 -0.05000
C 	C 	0.00069 0.71584 0.52301 0.08300
H 	H 	0.95887 0.65709 0.55143 0.05900
N 	N 	0.95819 0.63995 0.44927 -0.19900
H 	H 	0.01684 0.72142 0.44588 0.06700
N 	N 	0.01246 0.74197 0.54548 -0.19500
H 	H 	0.95659 0.63581 0.40775 0.09700
H 	H 	0.02456 0.75545 0.52308 0.10900
H 	H 	0.00909 0.74955 0.58479 0.10800
H 	H 	0.02992 0.69463 0.77528 0.10300
H 	H 	0.04943 0.68481 0.71749 0.09400
F 	F 	0.94438 0.98112 0.78215 -0.46300
C 	C 	0.91211 0.77453 0.96103 0.02200
C 	C 	0.93287 0.75557 0.98378 -0.04800
C 	C 	0.94736 0.73464 0.95140 0.00300
C 	C 	0.93965 0.73124 0.89573 -0.01500
C 	C 	0.97125 0.71818 0.97513 0.09300
N 	N 	0.99039 0.70504 0.99424 -0.10900
H 	H 	0.93863 0.75800 0.02639 0.05900
F 	F 	0.97611 0.03212 0.36850 -0.45000
C 	C 	0.95574 0.78317 0.12921 -0.03700
C 	C 	0.94434 0.75700 0.14746 0.02400
C 	C 	0.91408 0.75401 0.14804 -0.05400
C 	C 	0.93805 0.80832 0.12489 0.00700
C 	C 	0.96349 0.73703 0.17879 0.01900
C 	C 	0.97976 0.74915 0.22467 -0.04100
C 	C 	0.99306 0.73052 0.26123 0.00400
C 	C 	0.98871 0.69935 0.25372 -0.01900
C 	C 	0.97464 0.68710 0.20559 -0.01700
C 	C 	0.96252 0.70580 0.16765 -0.02700
C 	C 	0.01156 0.74353 0.30577 0.11000
C 	C 	0.98564 0.78453 0.11628 0.10400
N 	N 	0.02637 0.75398 0.34141 -0.08700
N 	N 	0.00961 0.78560 0.10586 -0.09600
H 	H 	0.94756 0.82940 0.11666 0.05900
H 	H 	0.90476 0.73323 0.15836 0.06000
H 	H 	0.98128 0.77317 0.23276 0.08700
Cd	Cd	0.84454 0.09960 0.84032 1.21400
C 	C 	0.82889 0.13899 0.73812 0.41300
O 	O 	0.82050 0.11980 0.76959 -0.52600
O 	O 	0.83759 0.08635 0.40540 -0.41300
C 	C 	0.84710 0.10588 0.44355 0.39300
O 	O 	0.84286 0.09934 0.49214 -0.30500
Cd	Cd	0.97817 0.12981 0.27727 1.24900
Cd	Cd	0.97916 0.10125 0.40706 1.25300
O 	O 	0.01109 0.17163 0.26773 -0.29200
O 	O 	0.98382 0.15179 0.19934 -0.31000
C 	C 	0.00226 0.17268 0.21767 0.27500
O 	O 	0.95231 0.08752 0.26249 -0.32900
O 	O 	0.94213 0.08474 0.34981 -0.39200
C 	C 	0.94600 0.07158 0.30232 0.37200
C 	C 	0.02435 0.09258 0.31263 0.40700
O 	O 	0.96706 0.14719 0.37588 -0.39300
O 	O 	0.02461 0.09523 0.26116 -0.24400
O 	O 	0.00641 0.10966 0.33750 -0.50000
C 	C 	0.94142 0.15536 0.35721 0.37700
O 	O 	0.93778 0.15509 0.30516 -0.31400
Cd	Cd	0.96968 0.16953 0.94059 1.24600
Cd	Cd	0.96008 0.12944 0.81362 1.25800
O 	O 	0.99086 0.21972 0.94380 -0.29500
O 	O 	0.97408 0.20235 0.01521 -0.31400
C 	C 	0.98650 0.22421 0.99414 0.26300
O 	O 	0.94420 0.12845 0.95500 -0.33600
O 	O 	0.95950 0.10013 0.88240 -0.36400
C 	C 	0.94327 0.10337 0.92353 0.37100
C 	C 	0.92234 0.18441 0.86802 0.38800
O 	O 	0.00104 0.14917 0.86272 -0.39500
O 	O 	0.91901 0.19591 0.91641 -0.24700
O 	O 	0.94710 0.17150 0.86157 -0.50000
C 	C 	0.01733 0.13588 0.89826 0.38800
O 	O 	0.01214 0.14258 0.94804 -0.31200
C 	C 	0.04594 0.40587 0.89714 0.12400
N 	N 	0.04336 0.43547 0.91115 -0.14200
C 	C 	0.04378 0.45562 0.87356 0.13200
N 	N 	0.04742 0.44618 0.82195 -0.14200
C 	C 	0.05115 0.41676 0.80803 0.13200
N 	N 	0.04953 0.39654 0.84530 -0.13500
C 	C 	0.05352 0.37135 0.32363 0.12500
N 	N 	0.05772 0.39805 0.30316 -0.14000
C 	C 	0.06152 0.42322 0.33633 0.13100
N 	N 	0.06101 0.42164 0.39000 -0.14300
C 	C 	0.05716 0.39501 0.41064 0.13300
N 	N 	0.05285 0.36996 0.37740 -0.13500
C 	C 	0.05588 0.40677 0.75206 -0.04500
C 	C 	0.07729 0.42048 0.72440 0.10600
C 	C 	0.07673 0.41591 0.66851 -0.08300
C 	C 	0.05647 0.39632 0.64030 -0.00400
C 	C 	0.03729 0.37989 0.66867 0.08000
C 	C 	0.03682 0.38571 0.72432 -0.05100
N 	N 	0.09885 0.43734 0.75137 -0.19800
H 	H 	0.09217 0.42757 0.64689 0.05800
C 	C 	0.05492 0.39407 0.58097 -0.00200
N 	N 	0.01910 0.35887 0.64276 -0.19400
H 	H 	0.02103 0.37446 0.74579 0.06200
C 	C 	0.07632 0.37787 0.55469 -0.08400
C 	C 	0.07783 0.37831 0.49913 0.10900
C 	C 	0.05626 0.39364 0.46894 -0.04700
C 	C 	0.03425 0.40896 0.49501 -0.04900
C 	C 	0.03365 0.40986 0.55088 0.07500
H 	H 	0.09264 0.36594 0.57787 0.06500
N 	N 	0.10061 0.36506 0.47552 -0.19900
H 	H 	0.01783 0.42075 0.47181 0.05500
N 	N 	0.01287 0.42616 0.57530 -0.19300
H 	H 	0.11574 0.35277 0.49772 0.10100
H 	H 	0.10434 0.36796 0.43578 0.10500
H 	H 	0.99716 0.43750 0.55264 0.09100
H 	H 	0.01220 0.42803 0.61681 0.09500
H 	H 	0.01976 0.35317 0.60186 0.10400
H 	H 	0.10211 0.43797 0.79298 0.09600
H 	H 	0.11369 0.44866 0.73058 0.09100
C 	C 	0.03411 0.10917 0.88266 -0.20800
C 	C 	0.04583 0.10653 0.83252 0.27200
F 	F 	0.06611 0.07657 0.76278 -0.36400
F 	F 	0.04720 0.13064 0.80325 -0.37900
C 	C 	0.01253 0.36791 0.00749 -0.02200
C 	C 	0.02377 0.33883 0.00022 0.01900
C 	C 	0.04595 0.33338 0.96537 -0.04500
C 	C 	0.05519 0.35589 0.93476 -0.00000
C 	C 	0.04107 0.38380 0.93673 -0.01700
C 	C 	0.02073 0.39002 0.97503 -0.02300
C 	C 	0.00930 0.31310 0.02138 0.02800
C 	C 	0.98057 0.30591 0.00267 -0.04300
C 	C 	0.97023 0.27673 0.00403 0.03200
C 	C 	0.98929 0.25427 0.02104 -0.05300
C 	C 	0.01589 0.26260 0.04857 0.00800
C 	C 	0.02571 0.29218 0.04986 -0.03400
C 	C 	0.94086 0.26941 0.98353 0.09600
C 	C 	0.05281 0.30077 0.07928 0.09200
C 	C 	0.99252 0.37521 0.04797 0.08900
C 	C 	0.07977 0.35047 0.90299 0.09200
N 	N 	0.91731 0.26358 0.96711 -0.06700
N 	N 	0.07450 0.30766 0.10296 -0.10900
N 	N 	0.09946 0.34613 0.87755 -0.10300
N 	N 	0.97646 0.38119 0.08034 -0.10500
H 	H 	0.01067 0.41182 0.97854 0.04900
H 	H 	0.05535 0.31129 0.96081 0.06100
H 	H 	0.96707 0.32236 0.98346 0.06100
H 	H 	0.03017 0.24560 0.06403 0.04800
F 	F 	0.05340 0.10411 0.41439 -0.40400
C 	C 	0.98902 0.25281 0.21795 -0.03000
C 	C 	0.01652 0.26243 0.20438 0.02800
C 	C 	0.03448 0.24199 0.17763 -0.05500
C 	C 	0.02740 0.21153 0.17249 0.02500
C 	C 	0.00215 0.20155 0.19395 -0.05100
C 	C 	0.98147 0.22257 0.20992 0.01200
C 	C 	0.02918 0.29116 0.22842 0.01500
C 	C 	0.05183 0.29066 0.26872 -0.04000
C 	C 	0.06142 0.31705 0.29759 0.00100
C 	C 	0.04762 0.34428 0.28736 -0.01600
C 	C 	0.02655 0.34514 0.24422 -0.01600
C 	C 	0.01752 0.31877 0.21431 -0.02200
C 	C 	0.08602 0.31609 0.33639 0.09200
C 	C 	0.99534 0.32006 0.17098 0.09400
C 	C 	0.96978 0.27312 0.24519 0.11000
C 	C 	0.04694 0.19049 0.14797 0.09500
N 	N 	0.10576 0.31521 0.36737 -0.10700
N 	N 	0.97740 0.32096 0.13651 -0.10200
N 	N 	0.06260 0.17361 0.12828 -0.08000
N 	N 	0.95437 0.28937 0.26704 -0.09600
H 	H 	0.96110 0.21495 0.22331 0.06600
H 	H 	0.05497 0.24948 0.16460 0.06000
H 	H 	0.06154 0.26956 0.27839 0.06200
H 	H 	0.01649 0.36616 0.23513 0.05200
C 	C 	0.86415 0.14443 0.38737 0.27000
C 	C 	0.86847 0.12855 0.43328 -0.21200
C 	C 	0.89567 0.12994 0.46237 0.28200
C 	C 	0.91936 0.14279 0.44091 0.25900
C 	C 	0.91605 0.15359 0.38961 -0.20400
C 	C 	0.88784 0.15722 0.36583 0.27600
F 	F 	0.88357 0.17181 0.32052 -0.37000
F 	F 	0.83730 0.14576 0.36172 -0.37700
F 	F 	0.94568 0.14357 0.46885 -0.42100
F 	F 	0.89964 0.11688 0.50935 -0.35600
C 	C 	0.94803 0.03762 0.49286 0.28800
C 	C 	0.97433 0.02210 0.49796 0.27700
F 	F 	0.99955 0.03601 0.48968 -0.39700
F 	F 	0.94829 0.06681 0.48230 -0.42100
C 	C 	0.91720 0.07398 0.73483 0.26900
C 	C 	0.89415 0.05401 0.72021 -0.19300
C 	C 	0.95187 0.03524 0.71216 -0.17400
C 	C 	0.94587 0.06499 0.72864 0.27000
F 	F 	0.96804 0.08436 0.74347 -0.46600
F 	F 	0.91195 0.10136 0.75837 -0.48700
C 	C 	0.87859 0.16000 0.73972 0.28200
C 	C 	0.85047 0.16190 0.75745 -0.23000
C 	C 	0.84587 0.17933 0.80467 0.25800
C 	C 	0.86951 0.18918 0.83932 0.26600
C 	C 	0.89797 0.18219 0.82613 -0.22600
C 	C 	0.90237 0.17037 0.77389 0.26100
F 	F 	0.92952 0.16859 0.75654 -0.44100
F 	F 	0.88310 0.14582 0.69148 -0.36000
F 	F 	0.86467 0.20432 0.88657 -0.37400
C 	C 	0.06312 0.45261 0.31407 -0.04900
C 	C 	0.08215 0.47501 0.33886 0.10500
C 	C 	0.07605 0.50506 0.33147 -0.08500
C 	C 	0.05239 0.51277 0.29712 -0.00500
C 	C 	0.03698 0.49014 0.26460 0.07400
C 	C 	0.04206 0.46012 0.27419 -0.05200
N 	N 	0.10636 0.46773 0.36917 -0.19900
H 	H 	0.08906 0.52246 0.35389 0.05800
C 	C 	0.04140 0.54376 0.30149 -0.00300
N 	N 	0.01680 0.49713 0.22541 -0.19400
H 	H 	0.02853 0.44280 0.25276 0.05600
C 	C 	0.05694 0.56634 0.28020 -0.08600
C 	C 	0.02384 0.60369 0.31599 -0.04900
C 	C 	0.00754 0.58092 0.33498 -0.04900
C 	C 	0.01664 0.55117 0.32986 0.07400
H 	H 	0.07598 0.56060 0.25880 0.05800
H 	H 	0.98820 0.58653 0.35559 0.05000
N 	N 	0.00195 0.53001 0.35334 -0.19300
H 	H 	0.98319 0.53560 0.37266 0.08900
H 	H 	0.00944 0.50815 0.35444 0.09400
H 	H 	0.00467 0.48035 0.20294 0.09300
H 	H 	0.01369 0.51915 0.21568 0.09400
H 	H 	0.11302 0.44558 0.37063 0.09800
H 	H 	0.11963 0.48440 0.38934 0.09100
C 	C 	0.03646 0.48703 0.88728 -0.05000
C 	C 	0.05306 0.51053 0.87018 0.10500
C 	C 	0.04158 0.53945 0.87146 -0.08600
C 	C 	0.01467 0.54550 0.89233 -0.00300
C 	C 	0.99981 0.52271 0.91539 0.07100
C 	C 	0.01068 0.49354 0.91201 -0.04800
N 	N 	0.08016 0.50557 0.85364 -0.19900
H 	H 	0.05344 0.55724 0.85563 0.05800
C 	C 	0.00088 0.57472 0.88457 -0.00400
N 	N 	0.97514 0.52869 0.94060 -0.19400
H 	H 	0.99850 0.47568 0.92691 0.05200
C 	C 	0.97979 0.57695 0.84203 -0.08500
C 	C 	0.96820 0.60474 0.83017 0.10500
C 	C 	0.97900 0.63086 0.85990 -0.04700
C 	C 	0.99896 0.62848 0.90417 -0.05300
C 	C 	0.00980 0.60055 0.91723 0.07600
H 	H 	0.97243 0.55698 0.81800 0.05900
N 	N 	0.94638 0.60615 0.79102 -0.19900
N 	N 	0.02862 0.59869 0.96110 -0.19400
H 	H 	0.93932 0.58689 0.76786 0.09200
H 	H 	0.93535 0.62602 0.78481 0.09900
H 	H 	0.03559 0.61797 0.98427 0.09300
H 	H 	0.03590 0.57814 0.97346 0.09200
H 	H 	0.96381 0.51156 0.95610 0.09100
H 	H 	0.96749 0.55046 0.94659 0.09400
H 	H 	0.09059 0.48520 0.85816 0.09400
H 	H 	0.09172 0.52271 0.83866 0.08900
N 	N 	0.93558 0.72352 0.60277 -0.19300
H 	H 	0.93535 0.71882 0.70629 0.06000
H 	H 	0.94634 0.62626 0.47172 0.09100
H 	H 	0.91625 0.73018 0.61926 0.10300
H 	H 	0.93739 0.72599 0.56217 0.10300
C 	C 	0.92583 0.02239 0.93936 0.27500
C 	C 	0.89658 0.02427 0.95098 -0.18200
C 	C 	0.88430 0.05245 0.96238 0.26800
C 	C 	0.90009 0.07852 0.95638 0.25200
C 	C 	0.92865 0.07662 0.94052 -0.18500
C 	C 	0.94188 0.04841 0.93447 0.26900
F 	F 	0.97009 0.04620 0.92274 -0.43100
F 	F 	0.93842 0.99533 0.93072 -0.42500
F 	F 	0.88717 0.10551 0.96368 -0.41400
F 	F 	0.85707 0.05456 0.97909 -0.34400
C 	C 	0.90091 0.79994 0.99430 0.01300
C 	C 	0.87246 0.79892 0.01026 -0.04300
C 	C 	0.91782 0.74931 0.87347 -0.01100
C 	C 	0.90436 0.77115 0.90560 -0.02200
C 	C 	0.88317 0.79058 0.88118 0.11200
N 	N 	0.86620 0.80619 0.86170 -0.09000
H 	H 	0.86042 0.77805 0.00542 0.05900
H 	H 	0.91155 0.74657 0.83094 0.05600
C 	C 	0.95640 0.02045 0.32982 0.25900
C 	C 	0.94231 0.03898 0.29363 -0.21700
C 	C 	0.94918 0.69284 0.11752 0.08900
N 	N 	0.93847 0.68247 0.07735 -0.11000
H 	H 	0.97231 0.66309 0.19844 0.04900
Cd	Cd	0.90028 0.88187 0.23813 1.24800
O 	O 	0.88189 0.83225 0.20405 -0.29500
O 	O 	0.90594 0.86027 0.15483 -0.33200
C 	C 	0.89502 0.83403 0.16035 0.27200
O 	O 	0.90971 0.86696 0.33782 -0.41000
C 	C 	0.93712 0.86500 0.32868 0.38700
O 	O 	0.94350 0.86797 0.27972 -0.34100
C 	C 	0.89410 0.91543 0.88728 0.42200
O 	O 	0.90517 0.90839 0.93388 -0.27500
O 	O 	0.75126 0.10538 0.71313 -0.28500
O 	O 	0.76775 0.07678 0.64807 -0.32900
C 	C 	0.74552 0.09062 0.66717 0.27400
O 	O 	0.77364 0.05966 0.47044 -0.29100
O 	O 	0.79529 0.04601 0.54524 -0.31700
C 	C 	0.77095 0.05198 0.51862 0.27700
C 	C 	0.57486 0.00732 0.79614 0.12600
N 	N 	0.54796 0.99797 0.77590 -0.14200
C 	C 	0.53108 0.98187 0.80549 0.13100
N 	N 	0.54070 0.97601 0.85592 -0.14300
C 	C 	0.56749 0.98516 0.87621 0.13300
N 	N 	0.58485 0.00020 0.84588 -0.13300
C 	C 	0.59889 0.96200 0.35323 0.12700
N 	N 	0.60412 0.96128 0.30064 -0.13500
C 	C 	0.58511 0.94747 0.26307 0.13500
N 	N 	0.56231 0.93198 0.27851 -0.14200
C 	C 	0.55658 0.93309 0.33087 0.13100
N 	N 	0.57470 0.94855 0.36807 -0.14000
Cd	Cd	0.01986 0.95159 0.37805 1.23600
O 	O 	0.99524 0.95285 0.45192 -0.34300
O 	O 	0.04483 0.91363 0.41915 -0.42300
C 	C 	0.03473 0.89652 0.45328 0.39300
O 	O 	0.04172 0.90414 0.50367 -0.31900
N 	N 	0.22471 0.86826 0.59802 -0.10900
H 	H 	0.15444 0.89721 0.58465 0.04500
C 	C 	0.52808 0.92254 0.34567 -0.04900
C 	C 	0.52508 0.91015 0.39523 0.10600
C 	C 	0.49727 0.90731 0.41364 -0.08600
C 	C 	0.47243 0.91379 0.38112 -0.00300
C 	C 	0.47536 0.92313 0.32917 0.07400
C 	C 	0.50316 0.92784 0.31232 -0.05200
N 	N 	0.54856 0.89974 0.42395 -0.19900
H 	H 	0.49492 0.89930 0.45275 0.05800
H 	H 	0.50535 0.93652 0.27370 0.05300
H 	H 	0.44405 0.95827 0.43246 0.05900
H 	H 	0.56860 0.89706 0.40748 0.10000
H 	H 	0.54642 0.89223 0.46185 0.09300
C 	C 	0.50189 0.97164 0.78389 -0.04900
C 	C 	0.49233 0.94238 0.79094 0.10500
C 	C 	0.46244 0.93627 0.78875 -0.08500
N 	N 	0.51172 0.92013 0.79934 -0.19900
H 	H 	0.45495 0.91465 0.79875 0.05800
N 	N 	0.40260 0.91613 0.71478 -0.19400
H 	H 	0.39000 0.89861 0.69570 0.09100
H 	H 	0.42130 0.92232 0.69725 0.09200
H 	H 	0.53387 0.92328 0.79554 0.09800
H 	H 	0.50457 0.89891 0.80700 0.09100
C 	C 	0.57732 0.97931 0.93154 -0.04900
C 	C 	0.58101 0.00282 0.97220 0.11300
C 	C 	0.58868 0.99613 0.02503 -0.08400
C 	C 	0.58929 0.96649 0.03901 0.00600
C 	C 	0.58572 0.94293 0.99838 0.06700
C 	C 	0.58045 0.94966 0.94484 -0.04400
N 	N 	0.57549 0.03159 0.96150 -0.19800
H 	H 	0.59169 0.01410 0.05618 0.06900
C 	C 	0.58864 0.96077 0.09626 -0.00600
N 	N 	0.58695 0.91393 0.01048 -0.18900
H 	H 	0.57770 0.93169 0.91362 0.05400
C 	C 	0.56286 0.96633 0.12141 -0.08200
C 	C 	0.56208 0.96459 0.17671 0.10600
C 	C 	0.58648 0.95337 0.20627 -0.04400
C 	C 	0.61228 0.94756 0.18118 -0.05000
C 	C 	0.61386 0.95196 0.12663 0.08200
H 	H 	0.54378 0.97372 0.09831 0.05800
N 	N 	0.53859 0.97530 0.20157 -0.19900
H 	H 	0.63119 0.93966 0.20410 0.06400
N 	N 	0.63949 0.94755 0.10377 -0.19500
H 	H 	0.51988 0.98145 0.17913 0.09000
H 	H 	0.53949 0.97991 0.24296 0.09900
H 	H 	0.65790 0.94082 0.12643 0.10900
H 	H 	0.64151 0.95095 0.06358 0.10800
H 	H 	0.58397 0.89672 0.98025 0.09100
H 	H 	0.59105 0.90811 0.04973 0.09700
H 	H 	0.56557 0.03694 0.92483 0.10600
H 	H 	0.57959 0.04890 0.99120 0.10300
F 	F 	0.94816 0.94909 0.53033 -0.33700
C 	C 	0.64680 0.97741 0.48106 -0.02400
C 	C 	0.66253 0.00279 0.46933 0.02100
C 	C 	0.65567 0.01593 0.42101 -0.03900
C 	C 	0.63355 0.00409 0.38459 0.00400
C 	C 	0.61949 0.97730 0.39431 -0.01800
C 	C 	0.62578 0.96456 0.44321 -0.01400
C 	C 	0.68791 0.01433 0.50484 0.03000
C 	C 	0.71199 0.99577 0.51372 -0.05200
C 	C 	0.73935 0.00822 0.52964 0.03100
C 	C 	0.74318 0.03945 0.53200 -0.05600
C 	C 	0.71856 0.05775 0.53039 0.01100
C 	C 	0.69081 0.04514 0.51949 -0.03700
C 	C 	0.76358 0.98879 0.54090 0.11000
C 	C 	0.66553 0.06399 0.52167 0.09900
C 	C 	0.65191 0.96454 0.53186 0.09500
C 	C 	0.62459 0.02031 0.33868 0.09600
N 	N 	0.78297 0.97318 0.55003 -0.06500
N 	N 	0.61742 0.03332 0.30193 -0.10100
N 	N 	0.65597 0.95415 0.57249 -0.10100
H 	H 	0.61457 0.94438 0.45151 0.05000
H 	H 	0.66766 0.03541 0.41170 0.06500
H 	H 	0.70986 0.97186 0.50487 0.07300
H 	H 	0.72114 0.08181 0.53499 0.05500
C 	C 	0.68433 0.03691 0.66915 -0.03200
C 	C 	0.66090 0.05687 0.67392 0.02800
C 	C 	0.66436 0.08656 0.66165 -0.05200
C 	C 	0.69186 0.09733 0.65196 0.02600
C 	C 	0.71606 0.07824 0.65450 -0.06400
C 	C 	0.71164 0.04762 0.65865 0.01200
C 	C 	0.63527 0.04860 0.70206 0.01700
C 	C 	0.63398 0.05814 0.75615 -0.03900
C 	C 	0.61290 0.04660 0.78636 0.00200
C 	C 	0.59379 0.02386 0.76301 -0.01600
C 	C 	0.59372 0.01599 0.70777 -0.01400
C 	C 	0.61384 0.02892 0.67701 -0.02500
C 	C 	0.61010 0.05940 0.84011 0.09500
C 	C 	0.68118 0.00599 0.67981 0.12000
C 	C 	0.69521 0.12812 0.64067 0.09300
N 	N 	0.60804 0.06987 0.88310 -0.10400
N 	N 	0.67869 0.98124 0.68854 -0.08900
H 	H 	0.73001 0.03256 0.65829 0.06400
H 	H 	0.64606 0.10168 0.66288 0.06300
H 	H 	0.64971 0.07430 0.77493 0.06600
H 	H 	0.57833 0.99954 0.68890 0.05000
C 	C 	0.91621 0.94727 0.82459 0.27600
C 	C 	0.91266 0.91899 0.84327 -0.24500
C 	C 	0.93100 0.89559 0.82703 0.28800
C 	C 	0.95430 0.90123 0.79643 0.28000
C 	C 	0.95949 0.93033 0.78262 -0.21900
C 	C 	0.93962 0.95296 0.79495 0.26100
F 	F 	0.97296 0.87894 0.78356 -0.38200
F 	F 	0.92720 0.86782 0.84339 -0.39300
C 	C 	0.91711 0.82661 0.00399 -0.01700
C 	C 	0.90375 0.85257 0.02416 0.01000
C 	C 	0.94713 0.82775 0.99151 0.10900
N 	N 	0.97118 0.82862 0.98154 -0.08800
H 	H 	0.91587 0.87338 0.02905 0.07400
F 	F 	0.96388 0.97248 0.36208 -0.47800
C 	C 	0.98287 0.88297 0.45569 0.26800
C 	C 	0.01020 0.87644 0.43678 -0.21400
C 	C 	0.01190 0.85671 0.39127 0.26400
C 	C 	0.98674 0.84900 0.35896 0.27400
C 	C 	0.96000 0.86157 0.37165 -0.22100
C 	C 	0.95771 0.87625 0.42253 0.27900
F 	F 	0.93158 0.88601 0.43801 -0.44300
F 	F 	0.98084 0.89826 0.50385 -0.35200
F 	F 	0.98865 0.83130 0.31319 -0.39700
F 	F 	0.03818 0.84749 0.37559 -0.39200
C 	C 	0.89614 0.77874 0.14080 0.02400
C 	C 	0.90876 0.80696 0.13653 -0.06600
Cd	Cd	0.88526 0.90921 0.36862 1.21500
O 	O 	0.91562 0.92924 0.24326 -0.33800
O 	O 	0.92121 0.93403 0.33486 -0.38300
C 	C 	0.91979 0.94617 0.28848 0.36500
C 	C 	0.84487 0.90614 0.25677 0.40400
O 	O 	0.84840 0.90349 0.20544 -0.24500
O 	O 	0.86444 0.89337 0.28658 -0.52900
Cd	Cd	0.85687 0.93279 0.96976 1.25000
Cd	Cd	0.84403 0.96151 0.84152 1.21800
O 	O 	0.84144 0.88119 0.97807 -0.29600
O 	O 	0.86836 0.90585 0.04166 -0.30900
C 	C 	0.85752 0.88014 0.02249 0.27900
O 	O 	0.88110 0.97645 0.97783 -0.32700
O 	O 	0.85509 0.99715 0.90835 -0.37500
C 	C 	0.87788 0.99737 0.94340 0.41800
O 	O 	0.81373 0.94302 0.90096 -0.43100
O 	O 	0.86779 0.92560 0.88654 -0.51600
C 	C 	0.80144 0.95895 0.93827 0.38600
O 	O 	0.81377 0.95761 0.98657 -0.29800
Cd	Cd	0.79998 0.08301 0.72106 1.24800
O 	O 	0.84288 0.06341 0.70158 -0.34700
O 	O 	0.86032 0.06056 0.78875 -0.40900
C 	C 	0.86491 0.06119 0.73766 0.39200
O 	O 	0.79864 0.07792 0.82483 -0.39500
C 	C 	0.79238 0.04979 0.81372 0.36400
O 	O 	0.78856 0.04111 0.76300 -0.33300
Cd	Cd	0.82622 0.05058 0.47920 1.24800
Cd	Cd	0.86486 0.04982 0.36201 1.21900
O 	O 	0.87049 0.03398 0.50507 -0.32800
O 	O 	0.89368 0.05427 0.43845 -0.38000
C 	C 	0.89372 0.03630 0.47766 0.38200
C 	C 	0.82146 0.99953 0.40428 0.37300
O 	O 	0.81256 0.99391 0.45060 -0.24900
O 	O 	0.82781 0.02729 0.39940 -0.49300
C 	C 	0.92149 0.02273 0.49679 -0.18600
C 	C 	0.92188 0.99331 0.51231 0.27600
C 	C 	0.94823 0.97796 0.51792 0.29000
F 	F 	0.89661 0.97893 0.51847 -0.38200
C 	C 	0.89993 0.02587 0.69499 0.29100
C 	C 	0.92881 0.01664 0.69031 0.29300
F 	F 	0.93426 0.98870 0.66920 -0.35300
F 	F 	0.87776 0.00679 0.67829 -0.37900
C 	C 	0.79391 0.01361 0.94339 0.28000
C 	C 	0.78425 0.98500 0.92358 -0.21300
C 	C 	0.76643 0.98230 0.87574 0.25300
C 	C 	0.76642 0.00501 0.84066 0.25900
C 	C 	0.78291 0.03105 0.85517 -0.21400
C 	C 	0.79363 0.03665 0.90880 0.27300
F 	F 	0.80490 0.06375 0.92655 -0.38700
F 	F 	0.80661 0.01812 0.99376 -0.34400
F 	F 	0.75145 0.00124 0.79208 -0.39400
F 	F 	0.75285 0.95602 0.85980 -0.39400
F 	F 	0.89870 0.97008 0.83960 -0.50000
C 	C 	0.85892 0.82515 0.02911 0.02100
C 	C 	0.87386 0.85262 0.03142 -0.05000
C 	C 	0.82931 0.82398 0.04375 0.10000
N 	N 	0.80556 0.82304 0.05551 -0.08800
C 	C 	0.91706 0.99571 0.24831 0.26600
C 	C 	0.92962 0.97749 0.28693 -0.20400
C 	C 	0.95009 0.98995 0.32661 0.25600
C 	C 	0.92316 0.02641 0.25199 0.26800
F 	F 	0.90972 0.04401 0.21621 -0.37000
F 	F 	0.89859 0.98384 0.20783 -0.34800
C 	C 	0.80886 0.94792 0.36472 0.25700
C 	C 	0.81922 0.97684 0.35817 -0.22800
C 	C 	0.82898 0.98308 0.30832 0.25800
C 	C 	0.83275 0.95977 0.26938 0.26300
C 	C 	0.82742 0.93019 0.28047 -0.23100
C 	C 	0.81278 0.92481 0.32574 0.24200
F 	F 	0.80495 0.89655 0.33443 -0.40400
F 	F 	0.79581 0.94198 0.40949 -0.38700
F 	F 	0.84320 0.96573 0.22222 -0.35300
F 	F 	0.83470 0.01150 0.29746 -0.47600
C 	C 	0.86504 0.77539 0.14089 0.08900
N 	N 	0.84011 0.77268 0.14097 -0.09400
