data_crystal

_cell_length_a 28.84240
_cell_length_b 29.26306
_cell_length_c 29.18699
_cell_angle_alpha 90.00026
_cell_angle_beta  90.00508
_cell_angle_gamma 90.00017

_symmetry_space_group_name_	'P 1'
_symmetry_space_group_name_H-M	'P 1'

loop_
_symmetry_equiv_pos_as_xyz
  x,y,z

loop_
_atom_site_label
_atom_site_type_symbol
_atom_site_fract_x
_atom_site_fract_y
_atom_site_fract_z
_atom_site_charge
C 	C 	0.28484 0.41492 0.17790 0.30100
C 	C 	0.21744 0.57496 0.28632 0.32000
C 	C 	0.20682 0.41130 0.28218 0.32400
C 	C 	0.29204 0.57642 0.20372 0.30300
C 	C 	0.10429 0.49587 0.21196 0.32200
C 	C 	0.18405 0.50147 0.10408 0.29800
Ni	Ni	0.26365 0.48898 0.24993 1.12600
Ni	Ni	0.18956 0.55044 0.19201 1.12800
Ni	Ni	0.18563 0.44110 0.18658 1.13000
O 	O 	0.28959 0.42857 0.22109 -0.33500
O 	O 	0.24420 0.41730 0.15642 -0.35000
O 	O 	0.12238 0.53079 0.18975 -0.36600
O 	O 	0.25041 0.54467 0.29161 -0.34400
O 	O 	0.18206 0.56656 0.25917 -0.37500
O 	O 	0.16211 0.46871 0.12685 -0.33900
O 	O 	0.21862 0.45324 0.29168 -0.35300
O 	O 	0.20257 0.39813 0.23932 -0.35600
O 	O 	0.19254 0.54131 0.12398 -0.36200
O 	O 	0.30495 0.53370 0.21263 -0.34700
O 	O 	0.25014 0.58642 0.18730 -0.34800
O 	O 	0.12954 0.46000 0.22272 -0.36700
O 	O 	0.22068 0.49423 0.20229 -0.72000
H 	H 	0.24209 0.49572 0.17600 0.16200
C 	C 	0.72376 0.58392 0.17776 0.30900
C 	C 	0.79896 0.42688 0.28568 0.31800
C 	C 	0.80935 0.59361 0.27453 0.32500
C 	C 	0.71747 0.42384 0.21056 0.30500
C 	C 	0.90510 0.50097 0.20332 0.31700
C 	C 	0.81926 0.49441 0.09884 0.30900
Ni	Ni	0.75116 0.51307 0.25143 1.12100
Ni	Ni	0.81819 0.44857 0.18860 1.12900
Ni	Ni	0.82382 0.55755 0.17939 1.12500
O 	O 	0.72234 0.57189 0.22178 -0.34200
O 	O 	0.76273 0.58066 0.15325 -0.35400
O 	O 	0.88431 0.46828 0.18011 -0.37700
O 	O 	0.76955 0.45982 0.29478 -0.34500
O 	O 	0.83174 0.43292 0.25494 -0.37200
O 	O 	0.84258 0.52770 0.11933 -0.36900
O 	O 	0.79824 0.55237 0.28775 -0.36000
O 	O 	0.81201 0.60357 0.23070 -0.35100
O 	O 	0.80924 0.45606 0.12077 -0.35400
O 	O 	0.70594 0.46678 0.22056 -0.34600
O 	O 	0.75732 0.41336 0.19014 -0.34700
O 	O 	0.88422 0.54062 0.20993 -0.35800
O 	O 	0.78974 0.50560 0.20062 -0.72200
H 	H 	0.76587 0.50353 0.17652 0.16400
C 	C 	0.43262 0.71666 0.21116 0.30500
C 	C 	0.59662 0.81679 0.27757 0.31600
C 	C 	0.44092 0.81193 0.29505 0.32400
C 	C 	0.59273 0.72344 0.18606 0.30400
C 	C 	0.50730 0.90248 0.19848 0.32600
C 	C 	0.49487 0.81072 0.10329 0.30300
Ni	Ni	0.51868 0.75248 0.25771 1.11900
Ni	Ni	0.56252 0.82035 0.18132 1.12900
Ni	Ni	0.45332 0.81744 0.19526 1.12700
O 	O 	0.47412 0.70526 0.22758 -0.34600
O 	O 	0.41763 0.75975 0.21242 -0.37300
O 	O 	0.54659 0.88173 0.20776 -0.36200
O 	O 	0.55636 0.80201 0.29236 -0.35500
O 	O 	0.60787 0.81208 0.23419 -0.34200
O 	O 	0.45781 0.80059 0.12852 -0.35800
O 	O 	0.46045 0.77124 0.29627 -0.34800
O 	O 	0.44892 0.83986 0.26080 -0.36800
O 	O 	0.53051 0.83398 0.12063 -0.35600
O 	O 	0.57985 0.72371 0.23013 -0.34700
O 	O 	0.58566 0.75912 0.15871 -0.35000
O 	O 	0.47370 0.88055 0.17761 -0.36900
O 	O 	0.51078 0.78807 0.20514 -0.72300
H 	H 	0.50806 0.76359 0.18213 0.16200
C 	C 	0.57632 0.28402 0.20985 0.30500
C 	C 	0.41041 0.18971 0.27893 0.31900
C 	C 	0.56707 0.19175 0.29510 0.32200
C 	C 	0.41617 0.27712 0.18359 0.30800
C 	C 	0.49909 0.09781 0.20171 0.32700
C 	C 	0.51274 0.18628 0.10461 0.30500
Ni	Ni	0.48978 0.25024 0.25641 1.11900
Ni	Ni	0.44502 0.18001 0.18302 1.13100
Ni	Ni	0.55425 0.18242 0.19635 1.13200
O 	O 	0.53437 0.29582 0.22451 -0.34600
O 	O 	0.59078 0.24064 0.21107 -0.35500
O 	O 	0.46137 0.12034 0.21268 -0.37000
O 	O 	0.45192 0.20193 0.29218 -0.36700
O 	O 	0.39913 0.19080 0.23525 -0.34400
O 	O 	0.55004 0.19676 0.12921 -0.35500
O 	O 	0.54777 0.23248 0.29565 -0.35700
O 	O 	0.55707 0.16260 0.26260 -0.36600
O 	O 	0.47708 0.16382 0.12296 -0.34800
O 	O 	0.42909 0.27855 0.22761 -0.34100
O 	O 	0.42261 0.24027 0.15780 -0.34200
O 	O 	0.53365 0.11851 0.18102 -0.36400
O 	O 	0.49718 0.21301 0.20494 -0.72400
H 	H 	0.50016 0.23656 0.18101 0.17100
C 	C 	0.57437 0.19458 0.71488 0.31100
C 	C 	0.42622 0.27607 0.82556 0.32500
C 	C 	0.58138 0.27833 0.80926 0.32100
C 	C 	0.41250 0.18638 0.73590 0.30700
C 	C 	0.51345 0.18597 0.90827 0.32500
C 	C 	0.50994 0.09238 0.81515 0.30300
Ni	Ni	0.49662 0.24735 0.75787 1.11700
Ni	Ni	0.45074 0.17667 0.83005 1.13000
Ni	Ni	0.56070 0.18010 0.81821 1.12900
O 	O 	0.53159 0.21009 0.70844 -0.36200
O 	O 	0.59326 0.19169 0.75664 -0.34800
O 	O 	0.47559 0.20173 0.88902 -0.36800
O 	O 	0.46865 0.28406 0.81180 -0.37000
O 	O 	0.41031 0.23390 0.82642 -0.34000
O 	O 	0.54878 0.11400 0.80329 -0.35100
O 	O 	0.56073 0.27771 0.76924 -0.36900
O 	O 	0.57426 0.24522 0.83883 -0.35500
O 	O 	0.47738 0.11273 0.84058 -0.34800
O 	O 	0.43022 0.22836 0.73572 -0.35800
O 	O 	0.41861 0.15809 0.77111 -0.34300
O 	O 	0.54530 0.16485 0.88391 -0.35700
O 	O 	0.50181 0.19455 0.79329 -0.72400
H 	H 	0.49970 0.17087 0.76940 0.16900
C 	C 	0.71739 0.19133 0.42012 0.30600
C 	C 	0.81107 0.29194 0.57180 0.32200
C 	C 	0.81274 0.27992 0.41632 0.32900
C 	C 	0.71420 0.20928 0.57668 0.30400
C 	C 	0.90213 0.19523 0.49833 0.32500
C 	C 	0.80836 0.10227 0.51122 0.30500
Ni	Ni	0.75105 0.25844 0.49393 1.12100
Ni	Ni	0.81666 0.19298 0.55487 1.12900
Ni	Ni	0.81657 0.18251 0.44598 1.12900
O 	O 	0.72114 0.23491 0.43271 -0.35400
O 	O 	0.75337 0.16289 0.42260 -0.35300
O 	O 	0.88097 0.17585 0.53327 -0.36300
O 	O 	0.76970 0.29353 0.55321 -0.34900
O 	O 	0.83953 0.25820 0.56235 -0.36000
O 	O 	0.83000 0.12045 0.47511 -0.35000
O 	O 	0.80396 0.29078 0.45886 -0.36800
O 	O 	0.80912 0.23712 0.40305 -0.35500
O 	O 	0.79938 0.12666 0.54868 -0.36100
O 	O 	0.70347 0.22580 0.53567 -0.33500
O 	O 	0.75789 0.20799 0.59190 -0.34700
O 	O 	0.87892 0.20815 0.46194 -0.36300
O 	O 	0.78559 0.20466 0.49897 -0.72300
H 	H 	0.76073 0.18169 0.50115 0.17000
C 	C 	0.21001 0.28089 0.42905 0.30700
C 	C 	0.27663 0.18452 0.59405 0.32200
C 	C 	0.29251 0.18757 0.43557 0.32900
C 	C 	0.18802 0.27822 0.58818 0.30400
C 	C 	0.19714 0.09663 0.50793 0.32600
C 	C 	0.10041 0.18920 0.49359 0.30700
Ni	Ni	0.25791 0.24573 0.51446 1.11800
Ni	Ni	0.17953 0.18086 0.55985 1.12900
Ni	Ni	0.19280 0.18028 0.45165 1.12800
O 	O 	0.22675 0.29215 0.47009 -0.35800
O 	O 	0.20861 0.23765 0.41454 -0.36200
O 	O 	0.20667 0.11919 0.54575 -0.37000
O 	O 	0.29208 0.19678 0.55353 -0.34700
O 	O 	0.23265 0.18999 0.60430 -0.36200
O 	O 	0.12527 0.19694 0.45604 -0.35100
O 	O 	0.29674 0.22667 0.45725 -0.35900
O 	O 	0.25934 0.15909 0.44655 -0.35500
O 	O 	0.11805 0.16657 0.52904 -0.36500
O 	O 	0.23204 0.27648 0.57431 -0.35600
O 	O 	0.15866 0.24366 0.58127 -0.34100
O 	O 	0.17599 0.11706 0.47366 -0.36300
O 	O 	0.20379 0.21108 0.50762 -0.72300
H 	H 	0.18072 0.23570 0.50448 0.16900
C 	C 	0.19442 0.41675 0.72368 0.30300
C 	C 	0.29303 0.56885 0.82094 0.32300
C 	C 	0.28493 0.41466 0.81564 0.32200
C 	C 	0.21221 0.57806 0.72259 0.30000
C 	C 	0.19617 0.49584 0.90630 0.32200
C 	C 	0.10268 0.50623 0.81206 0.30300
Ni	Ni	0.26105 0.49367 0.75684 1.12400
Ni	Ni	0.19284 0.55191 0.82246 1.13300
Ni	Ni	0.18550 0.44339 0.82157 1.12400
O 	O 	0.23776 0.43303 0.72491 -0.33300
O 	O 	0.16566 0.42082 0.75911 -0.36700
O 	O 	0.17371 0.52836 0.88457 -0.34800
O 	O 	0.29614 0.55204 0.77924 -0.34200
O 	O 	0.25802 0.55814 0.84741 -0.35200
O 	O 	0.12170 0.47098 0.83425 -0.35900
O 	O 	0.29582 0.45711 0.80686 -0.35600
O 	O 	0.24147 0.40116 0.81327 -0.36300
O 	O 	0.12656 0.54409 0.80312 -0.35500
O 	O 	0.22876 0.53738 0.71062 -0.34200
O 	O 	0.20960 0.59108 0.76638 -0.34000
O 	O 	0.20994 0.45914 0.88415 -0.37700
O 	O 	0.20664 0.49693 0.79113 -0.72300
H 	H 	0.18380 0.49890 0.76610 0.16500
C 	C 	0.20781 0.71725 0.58447 0.30900
C 	C 	0.29333 0.81200 0.42361 0.32300
C 	C 	0.29599 0.81189 0.57648 0.32100
C 	C 	0.20818 0.71684 0.42205 0.31200
C 	C 	0.20158 0.90015 0.50672 0.32300
C 	C 	0.10635 0.80936 0.50139 0.30400
Ni	Ni	0.26514 0.75038 0.50125 1.11800
Ni	Ni	0.19381 0.81723 0.44877 1.12900
Ni	Ni	0.19455 0.81451 0.55814 1.13100
O 	O 	0.24904 0.71933 0.56396 -0.35800
O 	O 	0.17737 0.75136 0.58156 -0.34200
O 	O 	0.17888 0.88007 0.47319 -0.37100
O 	O 	0.29331 0.76985 0.43870 -0.36800
O 	O 	0.25892 0.83993 0.43348 -0.36100
O 	O 	0.12870 0.82878 0.53649 -0.34500
O 	O 	0.30444 0.80008 0.53392 -0.37000
O 	O 	0.25448 0.80533 0.59393 -0.35500
O 	O 	0.12749 0.80031 0.46181 -0.35500
O 	O 	0.22578 0.70558 0.46253 -0.35500
O 	O 	0.20387 0.76034 0.40875 -0.34200
O 	O 	0.21887 0.87635 0.54082 -0.35700
O 	O 	0.21130 0.78561 0.50260 -0.72700
H 	H 	0.18746 0.76153 0.50245 0.17300
C 	C 	0.80451 0.72924 0.41713 0.30700
C 	C 	0.71845 0.80886 0.58175 0.32000
C 	C 	0.72003 0.82451 0.42634 0.32900
C 	C 	0.80587 0.71939 0.58187 0.31000
C 	C 	0.81051 0.90613 0.51336 0.32300
C 	C 	0.90678 0.81531 0.50111 0.30700
Ni	Ni	0.74803 0.75667 0.49954 1.12500
Ni	Ni	0.81961 0.81748 0.55964 1.12600
Ni	Ni	0.81880 0.82709 0.45095 1.12700
O 	O 	0.78441 0.71418 0.45524 -0.34300
O 	O 	0.80626 0.77373 0.40707 -0.36600
O 	O 	0.79570 0.88101 0.54773 -0.36900
O 	O 	0.70985 0.80281 0.53808 -0.34600
O 	O 	0.76112 0.80605 0.59744 -0.36800
O 	O 	0.88484 0.80814 0.46164 -0.35200
O 	O 	0.71723 0.78192 0.44018 -0.35600
O 	O 	0.75365 0.85105 0.44079 -0.37300
O 	O 	0.88517 0.83268 0.53769 -0.35100
O 	O 	0.76598 0.71961 0.55861 -0.34100
O 	O 	0.83691 0.75289 0.57823 -0.35800
O 	O 	0.83459 0.88773 0.47986 -0.35700
O 	O 	0.80192 0.79173 0.50261 -0.72600
H 	H 	0.82528 0.76728 0.50024 0.17100
C 	C 	0.58499 0.71397 0.81954 0.30600
C 	C 	0.42971 0.80176 0.71837 0.32200
C 	C 	0.58078 0.80118 0.72417 0.32100
C 	C 	0.42401 0.71055 0.81426 0.30000
C 	C 	0.50350 0.89590 0.81009 0.32400
C 	C 	0.49460 0.80757 0.90685 0.30400
Ni	Ni	0.50408 0.74070 0.75545 1.12000
Ni	Ni	0.44608 0.81189 0.81801 1.12400
Ni	Ni	0.55651 0.81159 0.82314 1.13200
O 	O 	0.56745 0.71249 0.77728 -0.35000
O 	O 	0.58116 0.75087 0.84594 -0.33700
O 	O 	0.46833 0.87618 0.83102 -0.36900
O 	O 	0.44254 0.75904 0.72328 -0.34800
O 	O 	0.43610 0.83125 0.75178 -0.37200
O 	O 	0.53017 0.82818 0.88602 -0.34400
O 	O 	0.53825 0.78831 0.71519 -0.35500
O 	O 	0.59653 0.80000 0.76652 -0.34200
O 	O 	0.45512 0.79887 0.88495 -0.36600
O 	O 	0.46240 0.69654 0.79317 -0.34000
O 	O 	0.40840 0.75314 0.80848 -0.36200
O 	O 	0.53871 0.87171 0.79509 -0.35600
O 	O 	0.50202 0.77986 0.80596 -0.72300
H 	H 	0.50103 0.75712 0.83082 0.16700
C 	C 	0.79523 0.58254 0.72185 0.30300
C 	C 	0.72085 0.41801 0.81067 0.32000
C 	C 	0.71357 0.57010 0.82144 0.32900
C 	C 	0.80890 0.42172 0.71667 0.30400
C 	C 	0.81329 0.49388 0.90230 0.32500
C 	C 	0.90409 0.50720 0.80693 0.30800
Ni	Ni	0.74465 0.49826 0.75395 1.12500
Ni	Ni	0.82067 0.44474 0.81523 1.12700
Ni	Ni	0.81433 0.55338 0.82051 1.12500
O 	O 	0.77696 0.54294 0.70860 -0.33900
O 	O 	0.79737 0.59439 0.76596 -0.35500
O 	O 	0.79780 0.45880 0.87873 -0.37300
O 	O 	0.71117 0.46115 0.80446 -0.34600
O 	O 	0.76390 0.40365 0.80691 -0.36500
O 	O 	0.88038 0.54566 0.80016 -0.36700
O 	O 	0.71166 0.55656 0.77857 -0.33900
O 	O 	0.74967 0.56033 0.84699 -0.37300
O 	O 	0.88505 0.47102 0.82757 -0.35000
O 	O 	0.76577 0.43816 0.71985 -0.33800
O 	O 	0.83851 0.42369 0.75160 -0.35300
O 	O 	0.83416 0.52811 0.88168 -0.36700
O 	O 	0.79975 0.49963 0.78724 -0.72400
H 	H 	0.82227 0.50218 0.76198 0.16900
C 	C 	0.60074 0.63164 0.83148 -0.03100
C 	C 	0.61640 0.67692 0.83385 -0.05600
C 	C 	0.66372 0.68560 0.84286 0.13200
C 	C 	0.69500 0.64908 0.84561 -0.01800
C 	C 	0.67991 0.60426 0.83742 -0.07600
C 	C 	0.63216 0.59536 0.83401 0.13800
Br	Br	0.60937 0.53382 0.83214 -0.17300
H 	H 	0.56450 0.62467 0.82508 0.09200
H 	H 	0.73169 0.65601 0.84962 0.07400
Br	Br	0.68748 0.74687 0.84590 -0.18100
C 	C 	0.77477 0.69133 0.65520 -0.02900
C 	C 	0.80895 0.68836 0.62127 -0.06800
C 	C 	0.84015 0.65133 0.62150 0.12700
C 	C 	0.83571 0.61689 0.65473 -0.02800
C 	C 	0.80003 0.61901 0.68741 -0.06700
C 	C 	0.76914 0.65635 0.68714 0.13200
Br	Br	0.71607 0.65809 0.72671 -0.19200
H 	H 	0.75052 0.71967 0.65493 0.08400
H 	H 	0.85967 0.58836 0.65484 0.08400
Br	Br	0.88827 0.64677 0.57634 -0.17100
C 	C 	0.67695 0.84479 0.64714 -0.02400
C 	C 	0.67970 0.80942 0.61472 -0.07600
C 	C 	0.64860 0.77227 0.61755 0.13400
C 	C 	0.61587 0.77062 0.65284 -0.02400
C 	C 	0.61391 0.80533 0.68592 -0.06800
C 	C 	0.64411 0.84303 0.68254 0.13000
Br	Br	0.64004 0.89318 0.72480 -0.17700
H 	H 	0.70066 0.87344 0.64513 0.07900
H 	H 	0.59266 0.74159 0.65526 0.08000
Br	Br	0.65174 0.72201 0.57532 -0.21800
C 	C 	0.03200 0.83833 0.47011 -0.02600
C 	C 	0.05529 0.81038 0.50162 -0.06100
C 	C 	0.02962 0.78487 0.53379 0.12900
C 	C 	0.98106 0.78648 0.53314 -0.02700
C 	C 	0.95781 0.81405 0.50125 -0.06300
C 	C 	0.98359 0.84104 0.47036 0.13500
Br	Br	0.95373 0.88449 0.43077 -0.18200
H 	H 	0.05163 0.85897 0.44613 0.08300
H 	H 	0.96141 0.76625 0.55745 0.08400
Br	Br	0.06001 0.74764 0.57874 -0.17400
C 	C 	0.37795 0.79856 0.59993 -0.03000
C 	C 	0.33537 0.82051 0.60780 -0.07500
C 	C 	0.32906 0.84536 0.64878 0.12900
C 	C 	0.36164 0.84149 0.68415 -0.02700
C 	C 	0.40165 0.81483 0.67814 -0.07600
C 	C 	0.41140 0.79641 0.63454 0.13200
Br	Br	0.47087 0.77018 0.62087 -0.20300
H 	H 	0.38448 0.78177 0.56747 0.07600
H 	H 	0.35516 0.85814 0.71669 0.07600
Br	Br	0.27808 0.88700 0.65592 -0.18500
C 	C 	0.97823 0.53595 0.83807 -0.02500
C 	C 	0.95480 0.50971 0.80526 -0.06700
C 	C 	0.98018 0.48347 0.77356 0.12600
C 	C 	0.02868 0.48285 0.77573 -0.03100
C 	C 	0.05201 0.50839 0.80919 -0.07000
C 	C 	0.02657 0.53505 0.84052 0.13200
Br	Br	0.05708 0.56856 0.88843 -0.18100
H 	H 	0.95874 0.55602 0.86264 0.08600
H 	H 	0.04821 0.46248 0.75144 0.07500
Br	Br	0.94936 0.44939 0.72635 -0.19700
C 	C 	0.37302 0.59463 0.83849 -0.02400
C 	C 	0.32564 0.60478 0.83539 -0.06900
C 	C 	0.31109 0.65069 0.83851 0.14100
C 	C 	0.34390 0.68584 0.83602 -0.02900
C 	C 	0.39137 0.67548 0.83228 -0.06300
C 	C 	0.40582 0.62993 0.83941 0.13000
Br	Br	0.46796 0.61615 0.85813 -0.19000
H 	H 	0.38440 0.55936 0.83991 0.08000
H 	H 	0.33226 0.72101 0.83479 0.08400
Br	Br	0.24658 0.66631 0.84286 -0.19700
C 	C 	0.17578 0.61228 0.65305 -0.02800
C 	C 	0.21001 0.61392 0.68723 -0.06500
C 	C 	0.24172 0.65050 0.68787 0.13400
C 	C 	0.23584 0.68716 0.65803 -0.03100
C 	C 	0.20327 0.68486 0.62259 -0.06500
C 	C 	0.17326 0.64691 0.61978 0.12800
Br	Br	0.13129 0.64012 0.56925 -0.16800
H 	H 	0.15195 0.58368 0.65162 0.08300
H 	H 	0.25979 0.71571 0.65958 0.08200
Br	Br	0.29813 0.64701 0.72224 -0.19400
C 	C 	0.22043 0.97463 0.47102 -0.02800
C 	C 	0.20290 0.95029 0.50855 -0.07300
C 	C 	0.18410 0.97418 0.54617 0.13300
C 	C 	0.18363 0.02195 0.54604 -0.02500
C 	C 	0.20053 0.04637 0.50817 -0.07300
C 	C 	0.21920 0.02240 0.47047 0.13400
Br	Br	0.24390 0.05386 0.41819 -0.18800
H 	H 	0.23480 0.95634 0.44200 0.08100
H 	H 	0.16872 0.04012 0.57485 0.07900
Br	Br	0.15562 0.94240 0.59645 -0.19100
C 	C 	0.18158 0.36027 0.60789 -0.02900
C 	C 	0.17533 0.31445 0.62087 -0.06500
C 	C 	0.16816 0.30387 0.66752 0.13000
C 	C 	0.17169 0.33824 0.70065 -0.02800
C 	C 	0.18259 0.38319 0.68791 -0.06800
C 	C 	0.18548 0.39460 0.64116 0.12800
Br	Br	0.19447 0.45677 0.62209 -0.19900
H 	H 	0.18601 0.36886 0.57203 0.07900
H 	H 	0.16824 0.32951 0.73658 0.08000
Br	Br	0.15696 0.24221 0.68723 -0.20100
C 	C 	0.84729 0.02896 0.52913 -0.02700
C 	C 	0.80728 0.05224 0.51505 -0.06500
C 	C 	0.76723 0.02740 0.50327 0.12400
C 	C 	0.76800 0.97948 0.50442 -0.02700
C 	C 	0.80858 0.95620 0.51708 -0.07500
C 	C 	0.84820 0.98119 0.53004 0.13300
Br	Br	0.90392 0.95066 0.54905 -0.17900
H 	H 	0.87794 0.04804 0.53894 0.09000
H 	H 	0.73739 0.96039 0.49454 0.08300
Br	Br	0.71152 0.05830 0.48488 -0.19100
C 	C 	0.97843 0.23311 0.50758 -0.02200
C 	C 	0.95285 0.19402 0.49605 -0.07500
C 	C 	0.97594 0.15461 0.48040 0.13200
C 	C 	0.02426 0.15422 0.47766 -0.02800
C 	C 	0.04994 0.19277 0.49045 -0.06600
C 	C 	0.02690 0.23262 0.50490 0.12900
Br	Br	0.06109 0.28647 0.52138 -0.18900
H 	H 	0.96069 0.26379 0.51880 0.08200
H 	H 	0.04199 0.12351 0.46647 0.08300
Br	Br	0.94217 0.10094 0.46263 -0.19600
C 	C 	0.81818 0.37243 0.59744 -0.02200
C 	C 	0.82317 0.32570 0.60733 -0.07500
C 	C 	0.83041 0.31183 0.65309 0.13500
C 	C 	0.82879 0.34414 0.68842 -0.02900
C 	C 	0.81955 0.39021 0.67875 -0.06100
C 	C 	0.81634 0.40467 0.63289 0.12800
Br	Br	0.80998 0.46826 0.61798 -0.19100
H 	H 	0.81368 0.38349 0.56227 0.07900
H 	H 	0.83239 0.33301 0.72367 0.08200
Br	Br	0.83926 0.24864 0.66859 -0.21800
C 	C 	0.54025 0.01662 0.83883 -0.02500
C 	C 	0.50938 0.04216 0.81197 -0.05900
C 	C 	0.47783 0.01945 0.78298 0.12600
C 	C 	0.47631 0.97158 0.78244 -0.02300
C 	C 	0.50668 0.94608 0.80990 -0.07400
C 	C 	0.53895 0.96882 0.83810 0.13700
Br	Br	0.58034 0.93534 0.87720 -0.19000
H 	H 	0.56490 0.03394 0.86083 0.09300
H 	H 	0.45173 0.95422 0.76040 0.07800
Br	Br	0.43833 0.05295 0.74217 -0.19700
C 	C 	0.39016 0.34274 0.78719 -0.02500
C 	C 	0.39271 0.31410 0.82562 -0.07300
C 	C 	0.36023 0.31918 0.86134 0.13400
C 	C 	0.32501 0.35206 0.85774 -0.02500
C 	C 	0.32215 0.38025 0.81894 -0.07600
C 	C 	0.35496 0.37532 0.78341 0.13300
Br	Br	0.35072 0.41051 0.72798 -0.23000
H 	H 	0.41458 0.33847 0.75929 0.06500
H 	H 	0.30010 0.35589 0.88528 0.07800
Br	Br	0.36457 0.28300 0.91605 -0.18200
C 	C 	0.38460 0.15476 0.66210 -0.02900
C 	C 	0.37484 0.17678 0.70370 -0.06800
C 	C 	0.33102 0.19664 0.71064 0.13100
C 	C 	0.29915 0.19819 0.67485 -0.03200
C 	C 	0.30974 0.17874 0.63215 -0.07300
C 	C 	0.35190 0.15491 0.62651 0.12800
Br	Br	0.36431 0.12013 0.57209 -0.16300
H 	H 	0.41793 0.13843 0.65702 0.08400
H 	H 	0.26647 0.21573 0.67991 0.09200
Br	Br	0.31449 0.22332 0.76848 -0.18600
C 	C 	0.60407 0.35923 0.79952 -0.02800
C 	C 	0.61303 0.31676 0.82004 -0.07500
C 	C 	0.65631 0.30961 0.84177 0.12900
C 	C 	0.69012 0.34410 0.84067 -0.02700
C 	C 	0.68273 0.38434 0.81540 -0.07500
C 	C 	0.63963 0.39097 0.79329 0.13500
Br	Br	0.63118 0.43732 0.74725 -0.20700
H 	H 	0.57067 0.36544 0.78365 0.07800
H 	H 	0.72286 0.33881 0.85810 0.08000
Br	Br	0.67129 0.25286 0.87143 -0.20100
C 	C 	0.66871 0.16238 0.63145 -0.02800
C 	C 	0.67670 0.20467 0.61024 -0.06300
C 	C 	0.64889 0.24259 0.62165 0.13300
C 	C 	0.61316 0.23771 0.65340 -0.02700
C 	C 	0.60599 0.19593 0.67568 -0.07000
C 	C 	0.63357 0.15790 0.66428 0.13000
Br	Br	0.62307 0.09952 0.69244 -0.18300
H 	H 	0.68985 0.13307 0.62256 0.08200
H 	H 	0.59246 0.26723 0.66267 0.07600
Br	Br	0.66165 0.30238 0.59746 -0.19600
C 	C 	0.52281 0.14593 0.03095 -0.02900
C 	C 	0.51671 0.18710 0.05464 -0.06400
C 	C 	0.51188 0.22824 0.03021 0.12600
C 	C 	0.51230 0.22769 0.98225 -0.02100
C 	C 	0.51708 0.18626 0.95847 -0.07600
C 	C 	0.52212 0.14509 0.98313 0.13500
Br	Br	0.52416 0.08697 0.95252 -0.18400
H 	H 	0.52697 0.11429 0.04979 0.09300
H 	H 	0.50816 0.25938 0.96346 0.08500
Br	Br	0.50298 0.28518 0.06173 -0.18500
C 	C 	0.38158 0.15017 0.34854 -0.02900
C 	C 	0.37425 0.18266 0.31384 -0.07500
C 	C 	0.33631 0.21294 0.31724 0.12800
C 	C 	0.30787 0.21184 0.35590 -0.03100
C 	C 	0.31715 0.18156 0.39194 -0.07900
C 	C 	0.35341 0.14970 0.38768 0.13100
Br	Br	0.36685 0.10729 0.43603 -0.16000
H 	H 	0.41048 0.12662 0.34606 0.08000
H 	H 	0.27986 0.23628 0.35894 0.07800
Br	Br	0.32481 0.25890 0.27170 -0.18200
C 	C 	0.59557 0.18649 0.37512 -0.02300
C 	C 	0.60408 0.18101 0.32815 -0.08200
C 	C 	0.64930 0.17014 0.31308 0.13400
C 	C 	0.68582 0.16878 0.34458 -0.03100
C 	C 	0.67792 0.17864 0.39091 -0.06400
C 	C 	0.63217 0.18482 0.40656 0.12500
Br	Br	0.61893 0.19028 0.47072 -0.19100
H 	H 	0.56066 0.19316 0.38711 0.07700
H 	H 	0.72087 0.16298 0.33251 0.08400
Br	Br	0.66281 0.15997 0.24942 -0.23300
C 	C 	0.48954 0.97633 0.16158 -0.03200
C 	C 	0.50536 0.95247 0.20016 -0.07400
C 	C 	0.51680 0.97656 0.24042 0.12800
C 	C 	0.51374 0.02430 0.24101 -0.02500
C 	C 	0.49813 0.04795 0.20219 -0.08100
C 	C 	0.48496 0.02366 0.16274 0.13500
Br	Br	0.45933 0.05436 0.11044 -0.19400
H 	H 	0.48047 0.95794 0.13064 0.09600
H 	H 	0.52349 0.04298 0.27159 0.07900
Br	Br	0.53426 0.94495 0.29549 -0.18600
C 	C 	0.51457 0.77263 0.02996 -0.02900
C 	C 	0.49106 0.80753 0.05329 -0.07000
C 	C 	0.46796 0.84182 0.02829 0.13200
C 	C 	0.46957 0.84156 0.98043 -0.02800
C 	C 	0.49371 0.80714 0.95710 -0.06500
C 	C 	0.51560 0.77202 0.98198 0.12600
Br	Br	0.54600 0.72245 0.95114 -0.18900
H 	H 	0.53236 0.74616 0.04911 0.07800
H 	H 	0.45217 0.86830 0.96132 0.08300
Br	Br	0.43466 0.88972 0.05892 -0.19300
C 	C 	0.70980 0.82940 0.34264 -0.02500
C 	C 	0.69249 0.83842 0.38651 -0.08400
C 	C 	0.64579 0.85088 0.39183 0.13500
C 	C 	0.61572 0.84909 0.35422 -0.03300
C 	C 	0.63147 0.83308 0.31149 -0.06200
C 	C 	0.67981 0.82626 0.30508 0.12200
Br	Br	0.70661 0.81363 0.24614 -0.16700
H 	H 	0.74633 0.82196 0.33816 0.06900
H 	H 	0.57945 0.85750 0.35892 0.10300
Br	Br	0.62201 0.86824 0.45071 -0.17300
C 	C 	0.37557 0.82917 0.40601 -0.02900
C 	C 	0.32950 0.82586 0.39075 -0.07700
C 	C 	0.32042 0.82475 0.34330 0.12800
C 	C 	0.35727 0.82332 0.31200 -0.02800
C 	C 	0.40329 0.82254 0.32758 -0.07700
C 	C 	0.41243 0.82729 0.37471 0.13100
Br	Br	0.47495 0.83071 0.39702 -0.18600
H 	H 	0.38284 0.83062 0.44242 0.07700
H 	H 	0.35005 0.82047 0.27567 0.06800
Br	Br	0.25802 0.82157 0.32065 -0.20200
C 	C 	0.85862 0.49112 0.02356 -0.03000
C 	C 	0.81732 0.49411 0.04864 -0.07200
C 	C 	0.77447 0.49499 0.02557 0.12500
C 	C 	0.77337 0.49344 0.97761 -0.02700
C 	C 	0.81477 0.49118 0.95250 -0.08000
C 	C 	0.85757 0.48928 0.97574 0.13000
Br	Br	0.91485 0.48224 0.94290 -0.19600
H 	H 	0.89160 0.48959 0.04131 0.08100
H 	H 	0.74039 0.49495 0.95987 0.08100
Br	Br	0.71728 0.49997 0.05892 -0.19300
C 	C 	0.84530 0.36662 0.32589 -0.02800
C 	C 	0.80228 0.38813 0.31834 -0.06700
C 	C 	0.76265 0.37250 0.34257 0.13100
C 	C 	0.76687 0.33685 0.37393 -0.02500
C 	C 	0.80971 0.31599 0.38169 -0.08000
C 	C 	0.84907 0.33065 0.35740 0.13300
Br	Br	0.90841 0.30272 0.36757 -0.18400
H 	H 	0.87592 0.37817 0.30778 0.08500
H 	H 	0.73647 0.32511 0.39234 0.06800
Br	Br	0.70157 0.39688 0.33196 -0.20600
C 	C 	0.63575 0.39921 0.19697 -0.02900
C 	C 	0.68104 0.38830 0.21104 -0.06000
C 	C 	0.69217 0.34230 0.22123 0.13300
C 	C 	0.65759 0.30920 0.22105 -0.03200
C 	C 	0.61234 0.31991 0.20717 -0.06400
C 	C 	0.60187 0.36501 0.19331 0.13100
Br	Br	0.54405 0.37961 0.16408 -0.17600
H 	H 	0.62746 0.43379 0.18660 0.09900
H 	H 	0.66615 0.27472 0.23163 0.09200
Br	Br	0.75452 0.32275 0.23398 -0.20600
C 	C 	0.69753 0.65750 0.14457 -0.02200
C 	C 	0.68628 0.61379 0.16087 -0.06200
C 	C 	0.64005 0.60443 0.17317 0.13300
C 	C 	0.60849 0.64035 0.17852 -0.03100
C 	C 	0.62209 0.68546 0.16952 -0.06300
C 	C 	0.66607 0.69365 0.14956 0.13500
Br	Br	0.68557 0.75396 0.13207 -0.17400
H 	H 	0.73233 0.66449 0.13246 0.08700
H 	H 	0.57400 0.63338 0.19146 0.08700
Br	Br	0.61992 0.54292 0.18404 -0.19000
C 	C 	0.83805 0.62418 0.34900 -0.02600
C 	C 	0.81182 0.63065 0.30892 -0.07500
C 	C 	0.78548 0.67109 0.30379 0.13000
C 	C 	0.78541 0.70387 0.33852 -0.03000
C 	C 	0.81024 0.69668 0.37911 -0.06900
C 	C 	0.83742 0.65700 0.38402 0.12600
Br	Br	0.87501 0.64772 0.43750 -0.17000
H 	H 	0.85856 0.59343 0.35315 0.09200
H 	H 	0.76423 0.73423 0.33475 0.08000
Br	Br	0.74615 0.68104 0.25175 -0.18800
C 	C 	0.02877 0.51980 0.24540 -0.02700
C 	C 	0.05352 0.49229 0.21449 -0.07800
C 	C 	0.02929 0.46573 0.18228 0.13200
C 	C 	0.98124 0.46938 0.17887 -0.03300
C 	C 	0.95615 0.49772 0.20888 -0.07200
C 	C 	0.98012 0.52162 0.24372 0.12700
Br	Br	0.94757 0.55347 0.29146 -0.19000
H 	H 	0.04727 0.53965 0.27088 0.07700
H 	H 	0.96337 0.45028 0.15243 0.08500
Br	Br	0.06115 0.42449 0.14194 -0.20300
C 	C 	0.19621 0.53902 0.02834 -0.03400
C 	C 	0.18871 0.49851 0.05329 -0.06100
C 	C 	0.18802 0.45620 0.02950 0.12700
C 	C 	0.19101 0.45575 0.98155 -0.02500
C 	C 	0.19762 0.49648 0.95695 -0.07400
C 	C 	0.20249 0.53796 0.98097 0.13500
Br	Br	0.22176 0.59305 0.95064 -0.18500
H 	H 	0.19827 0.57154 0.04594 0.09000
H 	H 	0.18836 0.42353 0.96344 0.07900
Br	Br	0.18694 0.39839 0.06082 -0.19600
C 	C 	0.30778 0.33928 0.14804 -0.02500
C 	C 	0.32044 0.38405 0.15962 -0.06300
C 	C 	0.36762 0.39445 0.16616 0.13300
C 	C 	0.39995 0.35911 0.17032 -0.02800
C 	C 	0.38575 0.31351 0.16623 -0.05900
C 	C 	0.34001 0.30379 0.15177 0.13700
Br	Br	0.31953 0.24224 0.14076 -0.17500
H 	H 	0.27188 0.33133 0.14049 0.09000
H 	H 	0.43557 0.36698 0.17902 0.09100
Br	Br	0.38803 0.45661 0.17148 -0.19200
C 	C 	0.24841 0.33957 0.38153 -0.03200
C 	C 	0.20760 0.31686 0.39408 -0.07000
C 	C 	0.16659 0.32436 0.36896 0.12500
C 	C 	0.16691 0.35434 0.33149 -0.02400
C 	C 	0.20786 0.37695 0.31893 -0.07700
C 	C 	0.24893 0.36906 0.34394 0.13600
Br	Br	0.30673 0.39630 0.32601 -0.21600
H 	H 	0.28032 0.33292 0.40002 0.07600
H 	H 	0.13516 0.36058 0.31264 0.07900
Br	Br	0.10958 0.29524 0.38626 -0.18300
C 	C 	0.37352 0.60233 0.19039 -0.03100
C 	C 	0.32767 0.61283 0.20303 -0.06100
C 	C 	0.31627 0.65835 0.21495 0.13100
C 	C 	0.35110 0.69098 0.21857 -0.02800
C 	C 	0.39700 0.68059 0.20654 -0.07000
C 	C 	0.40786 0.63630 0.19061 0.13200
Br	Br	0.46741 0.62255 0.16456 -0.19200
H 	H 	0.38221 0.56816 0.17899 0.09700
H 	H 	0.34226 0.72487 0.23073 0.08300
Br	Br	0.25359 0.67767 0.22672 -0.20300
C 	C 	0.17183 0.63189 0.33160 -0.02400
C 	C 	0.21514 0.61345 0.31917 -0.07000
C 	C 	0.25600 0.63081 0.34006 0.13500
C 	C 	0.25270 0.66483 0.37311 -0.02700
C 	C 	0.20963 0.68202 0.38631 -0.06600
C 	C 	0.16899 0.66605 0.36513 0.12900
Br	Br	0.10933 0.68939 0.38252 -0.18000
H 	H 	0.14032 0.61906 0.31602 0.08300
H 	H 	0.28404 0.67809 0.38876 0.07700
Br	Br	0.31722 0.61020 0.32368 -0.20200
