data_crystal

_cell_length_a 34.69974
_cell_length_b 58.11800
_cell_length_c 18.29243
_cell_angle_alpha 89.99961
_cell_angle_beta  89.99998
_cell_angle_gamma 91.53107

_symmetry_space_group_name_	'P 1'
_symmetry_space_group_name_H-M	'P 1'

loop_
_symmetry_equiv_pos_as_xyz
  x,y,z

loop_
_atom_site_label
_atom_site_type_symbol
_atom_site_fract_x
_atom_site_fract_y
_atom_site_fract_z
_atom_site_charge
Cu	Cu	0.60299 0.79465 0.97241 0.93700
Cu	Cu	0.56560 0.84568 0.99199 0.89600
Cu	Cu	0.54204 0.80524 0.08761 0.90600
Cu	Cu	0.58004 0.75887 0.09589 0.91000
C 	C 	0.65701 0.76162 0.02474 0.31500
O 	O 	0.57393 0.76961 0.91755 -0.33400
C 	C 	0.49263 0.84486 0.06058 0.32200
O 	O 	0.59113 0.79070 0.08512 -0.63900
O 	O 	0.55577 0.81271 0.98387 -0.62800
O 	O 	0.63696 0.81887 0.92735 -0.33000
O 	O 	0.61912 0.84575 0.00942 -0.41200
O 	O 	0.62885 0.74835 0.05120 -0.34300
O 	O 	0.53271 0.79793 0.18955 -0.34200
C 	C 	0.52989 0.77678 0.21567 0.32700
C 	C 	0.54243 0.75946 0.94305 0.32600
O 	O 	0.53476 0.75992 0.01340 -0.36300
O 	O 	0.55199 0.76027 0.19100 -0.35100
O 	O 	0.64978 0.77800 0.97709 -0.31800
C 	C 	0.64229 0.83920 0.95747 0.34500
O 	O 	0.49627 0.82455 0.09216 -0.33200
O 	O 	0.51182 0.85029 0.00079 -0.38200
H 	H 	0.61030 0.79718 0.12012 0.19200
H 	H 	0.53482 0.80859 0.94912 0.19900
Cu	Cu	0.87047 0.70309 0.96947 0.94000
Cu	Cu	0.91463 0.65388 0.98253 0.89700
Cu	Cu	0.93917 0.69570 0.07174 0.90400
Cu	Cu	0.89590 0.73991 0.08609 0.91000
C 	C 	0.81608 0.73492 0.02574 0.31600
O 	O 	0.89262 0.73018 0.91285 -0.32400
C 	C 	0.99070 0.65799 0.03745 0.31300
O 	O 	0.88780 0.70770 0.07928 -0.63700
O 	O 	0.92033 0.68714 0.97176 -0.62700
O 	O 	0.83807 0.67767 0.92758 -0.32700
O 	O 	0.86182 0.65166 0.00655 -0.41200
O 	O 	0.84506 0.74887 0.04486 -0.34400
O 	O 	0.95586 0.70492 0.16926 -0.34100
C 	C 	0.95359 0.72596 0.19593 0.32900
C 	C 	0.92671 0.73905 0.92885 0.31200
O 	O 	0.93851 0.73920 0.99730 -0.35000
O 	O 	0.92413 0.73901 0.18053 -0.35200
O 	O 	0.82188 0.71671 0.98470 -0.32200
C 	C 	0.83633 0.65716 0.95735 0.34700
O 	O 	0.98748 0.67886 0.06517 -0.34200
O 	O 	0.96914 0.65106 0.98218 -0.36800
H 	H 	0.87159 0.70067 0.11829 0.19400
H 	H 	0.93928 0.69173 0.93379 0.20300
Cu	Cu	0.77826 0.44885 0.23868 0.93700
Cu	Cu	0.82577 0.40192 0.23714 0.89500
Cu	Cu	0.86415 0.44637 0.20495 0.90600
Cu	Cu	0.83381 0.49319 0.24547 0.91200
C 	C 	0.76301 0.48661 0.33257 0.32700
O 	O 	0.76395 0.46708 0.14953 -0.33600
C 	C 	0.89141 0.40284 0.14440 0.32500
O 	O 	0.83263 0.46201 0.27492 -0.63600
O 	O 	0.81428 0.42990 0.18374 -0.63700
O 	O 	0.74729 0.42310 0.28146 -0.34000
O 	O 	0.80078 0.40734 0.32756 -0.39000
O 	O 	0.78372 0.50098 0.29183 -0.34200
O 	O 	0.91217 0.46180 0.23316 -0.34500
C 	C 	0.91816 0.48431 0.23703 0.33200
C 	C 	0.78962 0.47762 0.10765 0.32300
O 	O 	0.82443 0.48252 0.13247 -0.36400
O 	O 	0.89052 0.49826 0.25681 -0.35200
O 	O 	0.74976 0.46700 0.30543 -0.32100
C 	C 	0.76328 0.40904 0.32758 0.33100
O 	O 	0.89546 0.42556 0.14618 -0.33800
O 	O 	0.85831 0.39241 0.16000 -0.37500
H 	H 	0.84052 0.45928 0.32608 0.19800
H 	H 	0.80872 0.42779 0.13103 0.20300
Cu	Cu	0.21736 0.55037 0.24070 0.93700
Cu	Cu	0.17798 0.60014 0.21215 0.89300
Cu	Cu	0.13249 0.55490 0.20070 0.91000
Cu	Cu	0.15777 0.50832 0.25311 0.91200
C 	C 	0.22876 0.51348 0.34080 0.32900
O 	O 	0.23076 0.52899 0.15804 -0.33500
C 	C 	0.10983 0.59715 0.12698 0.32100
O 	O 	0.16153 0.54006 0.27632 -0.63400
O 	O 	0.18437 0.56884 0.17688 -0.63300
O 	O 	0.25058 0.57587 0.27899 -0.33600
O 	O 	0.19942 0.59763 0.30686 -0.40000
O 	O 	0.20732 0.49960 0.29973 -0.34400
O 	O 	0.08286 0.54180 0.23050 -0.34100
C 	C 	0.07484 0.51962 0.23898 0.33100
C 	C 	0.20434 0.51968 0.11494 0.32000
O 	O 	0.16886 0.51627 0.13856 -0.36100
O 	O 	0.10079 0.50540 0.26428 -0.35100
O 	O 	0.24243 0.53316 0.31486 -0.32900
C 	C 	0.23604 0.59326 0.31412 0.33500
O 	O 	0.10376 0.57471 0.13419 -0.33300
O 	O 	0.14477 0.60635 0.13196 -0.37500
H 	H 	0.15343 0.54417 0.32641 0.20100
H 	H 	0.19098 0.56817 0.12434 0.20100
Cu	Cu	0.71942 0.54764 0.73740 0.93700
Cu	Cu	0.67983 0.59760 0.71664 0.89400
Cu	Cu	0.63432 0.55267 0.69991 0.91000
Cu	Cu	0.65964 0.50554 0.74640 0.91300
C 	C 	0.73070 0.50984 0.83380 0.33000
O 	O 	0.73245 0.52728 0.65195 -0.33300
C 	C 	0.61136 0.59587 0.63269 0.32200
O 	O 	0.66370 0.53698 0.77297 -0.63400
O 	O 	0.68609 0.56685 0.67655 -0.63200
O 	O 	0.75269 0.57269 0.77851 -0.33500
O 	O 	0.70129 0.59361 0.81069 -0.39900
O 	O 	0.70917 0.49629 0.79187 -0.34200
O 	O 	0.58482 0.53945 0.72989 -0.34100
C 	C 	0.57649 0.51725 0.73689 0.33200
C 	C 	0.70583 0.51816 0.60884 0.32000
O 	O 	0.67041 0.51475 0.63274 -0.36000
O 	O 	0.60267 0.50250 0.75784 -0.35000
O 	O 	0.74483 0.52954 0.80885 -0.32900
C 	C 	0.73798 0.58935 0.81684 0.33500
O 	O 	0.60527 0.57335 0.63678 -0.33200
O 	O 	0.64636 0.60494 0.63811 -0.37300
H 	H 	0.65571 0.54062 0.82347 0.20200
H 	H 	0.69233 0.56684 0.62376 0.20400
Cu	Cu	0.27768 0.45141 0.74332 0.93700
Cu	Cu	0.31721 0.40181 0.71898 0.89800
Cu	Cu	0.36407 0.44648 0.71502 0.91100
Cu	Cu	0.33475 0.49489 0.75109 0.91300
C 	C 	0.26409 0.48880 0.84006 0.32600
O 	O 	0.26258 0.47045 0.65622 -0.33500
C 	C 	0.38551 0.40333 0.63820 0.32500
O 	O 	0.33224 0.46373 0.77985 -0.63300
O 	O 	0.31289 0.43302 0.68453 -0.63700
O 	O 	0.24818 0.42549 0.78875 -0.34500
O 	O 	0.30126 0.40571 0.81734 -0.39200
O 	O 	0.28548 0.50316 0.80025 -0.34100
O 	O 	0.41152 0.46153 0.74733 -0.34400
C 	C 	0.41876 0.48394 0.74386 0.33000
C 	C 	0.28817 0.48104 0.61425 0.32000
O 	O 	0.32349 0.48505 0.63787 -0.35400
O 	O 	0.39198 0.49900 0.75936 -0.34900
O 	O 	0.25032 0.46944 0.81197 -0.32200
C 	C 	0.26569 0.41110 0.83193 0.32300
O 	O 	0.39687 0.42325 0.66771 -0.34100
O 	O 	0.34895 0.39697 0.63665 -0.37400
H 	H 	0.33859 0.46116 0.83188 0.19800
H 	H 	0.30839 0.43406 0.63122 0.19900
Cu	Cu	0.61755 0.29854 0.43899 0.93600
Cu	Cu	0.57319 0.34642 0.46745 0.90400
Cu	Cu	0.55768 0.30421 0.56028 0.90900
Cu	Cu	0.60284 0.25893 0.55513 0.91600
C 	C 	0.67653 0.26672 0.47508 0.33000
O 	O 	0.59116 0.27263 0.38250 -0.33100
C 	C 	0.50170 0.34159 0.53590 0.32500
O 	O 	0.60841 0.29134 0.55062 -0.62900
O 	O 	0.56823 0.31350 0.45680 -0.63700
O 	O 	0.64647 0.32594 0.39996 -0.34100
O 	O 	0.62617 0.34872 0.49166 -0.39700
O 	O 	0.64971 0.25168 0.49663 -0.34300
O 	O 	0.54822 0.29258 0.65824 -0.33800
C 	C 	0.55117 0.27076 0.67706 0.32500
C 	C 	0.56066 0.26127 0.40803 0.31300
O 	O 	0.55468 0.25981 0.47898 -0.34700
O 	O 	0.58089 0.25872 0.65572 -0.34200
O 	O 	0.66732 0.28547 0.43941 -0.32600
C 	C 	0.65155 0.34425 0.44113 0.32800
O 	O 	0.51278 0.32417 0.57713 -0.33800
O 	O 	0.51888 0.34633 0.47367 -0.37200
H 	H 	0.62771 0.29801 0.58502 0.19200
H 	H 	0.54743 0.30862 0.42267 0.19800
Cu	Cu	0.88620 0.20371 0.42763 0.93700
Cu	Cu	0.92044 0.15359 0.46952 0.89300
Cu	Cu	0.94890 0.19734 0.54208 0.90900
Cu	Cu	0.91205 0.24419 0.53318 0.91200
C 	C 	0.83474 0.23974 0.46449 0.32900
O 	O 	0.91553 0.22635 0.36322 -0.32900
C 	C 	0.99561 0.15588 0.53033 0.32300
O 	O 	0.89996 0.21221 0.53686 -0.63400
O 	O 	0.93248 0.18546 0.44406 -0.63400
O 	O 	0.85162 0.17847 0.39211 -0.33400
O 	O 	0.86683 0.15519 0.48638 -0.40400
O 	O 	0.86452 0.25348 0.47998 -0.34100
O 	O 	0.96147 0.20912 0.63863 -0.34000
C 	C 	0.96421 0.23122 0.65524 0.32600
C 	C 	0.94864 0.23596 0.38317 0.31600
O 	O 	0.95700 0.23842 0.45286 -0.35900
O 	O 	0.93941 0.24603 0.62901 -0.34500
O 	O 	0.83947 0.22018 0.42972 -0.33200
C 	C 	0.84402 0.16021 0.43204 0.33400
O 	O 	0.99399 0.17765 0.55120 -0.32900
O 	O 	0.97393 0.14777 0.47674 -0.37700
H 	H 	0.88136 0.20745 0.57539 0.19500
H 	H 	0.95270 0.18723 0.40614 0.20200
Cu	Cu	0.71387 0.04688 0.27219 0.93700
Cu	Cu	0.67502 0.09546 0.22630 0.89400
Cu	Cu	0.62859 0.05037 0.23339 0.91000
Cu	Cu	0.65442 0.00568 0.30141 0.91100
C 	C 	0.72616 0.01407 0.38546 0.32900
O 	O 	0.72673 0.02260 0.19788 -0.33300
C 	C 	0.60578 0.09002 0.14597 0.32000
O 	O 	0.65834 0.03807 0.31267 -0.63400
O 	O 	0.68041 0.06300 0.20282 -0.63200
O 	O 	0.74779 0.07343 0.29942 -0.33700
O 	O 	0.69733 0.09639 0.32066 -0.40000
O 	O 	0.70419 0.99877 0.35075 -0.34600
O 	O 	0.57939 0.03843 0.26943 -0.34000
C 	C 	0.57138 0.01655 0.28389 0.32900
C 	C 	0.70008 0.01185 0.15872 0.31700
O 	O 	0.66485 0.00904 0.18430 -0.35800
O 	O 	0.59734 0.00313 0.31343 -0.35000
O 	O 	0.73951 0.03259 0.35168 -0.32900
C 	C 	0.73392 0.09208 0.32836 0.33600
O 	O 	0.59900 0.06810 0.16211 -0.33000
O 	O 	0.64111 0.09877 0.14550 -0.37500
H 	H 	0.65104 0.04392 0.36142 0.19900
H 	H 	0.68640 0.06028 0.15069 0.20100
Cu	Cu	0.27083 0.95255 0.28008 0.93800
Cu	Cu	0.31047 0.90353 0.24410 0.89400
Cu	Cu	0.35586 0.94872 0.24033 0.90900
Cu	Cu	0.33007 0.99437 0.30082 0.91100
C 	C 	0.25897 0.98715 0.38774 0.33000
O 	O 	0.25713 0.97534 0.20192 -0.33400
C 	C 	0.37867 0.90769 0.15954 0.32000
O 	O 	0.32652 0.96225 0.31795 -0.63400
O 	O 	0.30407 0.93530 0.21333 -0.63300
O 	O 	0.23750 0.92644 0.31272 -0.33700
O 	O 	0.28856 0.90447 0.33880 -0.40100
O 	O 	0.28066 0.00198 0.35041 -0.34300
O 	O 	0.40523 0.96129 0.27341 -0.34100
C 	C 	0.41330 0.98335 0.28464 0.33000
C 	C 	0.28335 0.98562 0.16067 0.31900
O 	O 	0.31877 0.98884 0.18479 -0.35900
O 	O 	0.38723 0.99735 0.31093 -0.35000
O 	O 	0.24541 0.96817 0.35696 -0.33000
C 	C 	0.25188 0.90866 0.34590 0.33800
O 	O 	0.38502 0.92993 0.17127 -0.33100
O 	O 	0.34364 0.89854 0.16313 -0.37300
H 	H 	0.33427 0.95727 0.36744 0.19900
H 	H 	0.29767 0.93685 0.16088 0.20400
Cu	Cu	0.10807 0.79629 0.47210 0.94000
Cu	Cu	0.06278 0.84528 0.47565 0.90400
Cu	Cu	0.04246 0.80527 0.57948 0.90800
Cu	Cu	0.08202 0.75875 0.58520 0.91400
C 	C 	0.16128 0.76289 0.52086 0.33000
O 	O 	0.08569 0.76947 0.41408 -0.32200
C 	C 	0.98898 0.84250 0.53726 0.32300
O 	O 	0.09181 0.79084 0.58130 -0.63400
O 	O 	0.05835 0.81214 0.47622 -0.63200
O 	O 	0.14018 0.82171 0.43031 -0.33100
O 	O 	0.11502 0.84882 0.50419 -0.39700
O 	O 	0.13147 0.74926 0.53786 -0.34100
O 	O 	0.02804 0.79565 0.67758 -0.33900
C 	C 	0.02719 0.77400 0.69976 0.32500
C 	C 	0.05131 0.76083 0.42932 0.30900
O 	O 	0.03916 0.76075 0.49753 -0.34800
O 	O 	0.05449 0.75968 0.68092 -0.34300
O 	O 	0.15651 0.78285 0.48844 -0.33500
C 	C 	0.14232 0.84220 0.46012 0.33400
O 	O 	0.99899 0.82678 0.58579 -0.34300
O 	O 	0.00816 0.84530 0.47595 -0.37100
H 	H 	0.10964 0.79687 0.61942 0.19500
H 	H 	0.03853 0.80633 0.44157 0.19900
Cu	Cu	0.37622 0.70370 0.46894 0.93700
Cu	Cu	0.41810 0.65440 0.48691 0.89300
Cu	Cu	0.43730 0.69488 0.58475 0.90900
Cu	Cu	0.39406 0.73972 0.59382 0.91300
C 	C 	0.31884 0.73495 0.51683 0.33000
O 	O 	0.40253 0.73075 0.41828 -0.33000
C 	C 	0.49120 0.65741 0.55520 0.32400
O 	O 	0.38662 0.70751 0.58181 -0.63400
O 	O 	0.42515 0.68761 0.48021 -0.63400
O 	O 	0.34654 0.67871 0.41910 -0.33600
O 	O 	0.36419 0.65199 0.50174 -0.40500
O 	O 	0.34647 0.74906 0.54091 -0.34300
O 	O 	0.44551 0.70241 0.68699 -0.33900
C 	C 	0.44544 0.72356 0.71342 0.32400
C 	C 	0.43388 0.74090 0.44462 0.31600
O 	O 	0.44100 0.74032 0.51513 -0.35700
O 	O 	0.41982 0.73854 0.69130 -0.34500
O 	O 	0.32688 0.71705 0.47595 -0.33200
C 	C 	0.34096 0.65856 0.44987 0.33500
O 	O 	0.48472 0.67695 0.58977 -0.32900
O 	O 	0.47227 0.65165 0.49539 -0.37900
H 	H 	0.36787 0.70017 0.61595 0.19500
H 	H 	0.44583 0.69258 0.44593 0.20100
Cu	Cu	0.12286 0.30229 0.92788 0.93800
Cu	Cu	0.08216 0.34952 0.97779 0.90400
Cu	Cu	0.06101 0.30466 0.04600 0.90700
Cu	Cu	0.10372 0.25961 0.03067 0.90800
C 	C 	0.18009 0.26933 0.96281 0.32600
O 	O 	0.09630 0.27921 0.86049 -0.32900
C 	C 	0.00775 0.34355 0.03660 0.31400
O 	O 	0.11134 0.29192 0.03652 -0.63800
O 	O 	0.07410 0.31775 0.94801 -0.63100
O 	O 	0.15399 0.33012 0.90023 -0.34400
O 	O 	0.13504 0.34898 0.00144 -0.41600
O 	O 	0.15302 0.25364 0.97799 -0.33800
O 	O 	0.05254 0.29185 0.14206 -0.34600
C 	C 	0.05081 0.26957 0.15558 0.32700
C 	C 	0.06565 0.26697 0.88076 0.31600
O 	O 	0.05812 0.26376 0.95050 -0.35200
O 	O 	0.07567 0.25541 0.12582 -0.34400
O 	O 	0.17178 0.28813 0.92644 -0.32300
C 	C 	0.15980 0.34652 0.94837 0.34700
O 	O 	0.01421 0.32267 0.06205 -0.33100
O 	O 	0.02813 0.35243 0.98259 -0.36500
H 	H 	0.12988 0.29720 0.07451 0.19400
H 	H 	0.05359 0.31532 0.91097 0.20300
Cu	Cu	0.38512 0.20350 0.94499 0.94000
Cu	Cu	0.41690 0.15221 0.98133 0.89500
Cu	Cu	0.44613 0.19432 0.06098 0.90400
Cu	Cu	0.41465 0.24213 0.05196 0.90900
C 	C 	0.33689 0.24110 0.98113 0.32700
O 	O 	0.41500 0.22640 0.88189 -0.32100
C 	C 	0.49143 0.15222 0.04452 0.31100
O 	O 	0.39890 0.21074 0.05494 -0.64100
O 	O 	0.43054 0.18420 0.96051 -0.63000
O 	O 	0.34910 0.17926 0.90765 -0.33000
O 	O 	0.36357 0.15479 0.99925 -0.40100
O 	O 	0.36803 0.25349 0.99898 -0.33300
O 	O 	0.45747 0.20466 0.15943 -0.34300
C 	C 	0.46262 0.22646 0.17835 0.32700
C 	C 	0.44935 0.23417 0.90139 0.31600
O 	O 	0.45875 0.23469 0.97092 -0.35500
O 	O 	0.44252 0.24297 0.14778 -0.34700
O 	O 	0.33963 0.22087 0.94937 -0.33200
C 	C 	0.34090 0.16067 0.94566 0.33600
O 	O 	0.48965 0.17338 0.07104 -0.33600
O 	O 	0.47003 0.14549 0.98876 -0.36700
H 	H 	0.37960 0.20667 0.09298 0.19600
H 	H 	0.45169 0.18614 0.92465 0.20700
Cu	Cu	0.77004 0.94879 0.76798 0.93600
Cu	Cu	0.80148 0.90005 0.70415 0.90200
Cu	Cu	0.85430 0.94373 0.72201 0.91000
Cu	Cu	0.83286 0.98777 0.80348 0.91600
C 	C 	0.76041 0.98053 0.88556 0.33100
O 	O 	0.75947 0.97530 0.70011 -0.33300
C 	C 	0.87015 0.90463 0.62449 0.31800
O 	O 	0.82666 0.95535 0.80633 -0.62900
O 	O 	0.80082 0.93325 0.69330 -0.63200
O 	O 	0.73465 0.92244 0.79103 -0.34000
O 	O 	0.78287 0.89706 0.80122 -0.39300
O 	O 	0.78299 0.99540 0.85063 -0.34400
O 	O 	0.90561 0.95656 0.74620 -0.33300
C 	C 	0.91342 0.97690 0.77605 0.32400
C 	C 	0.78692 0.98525 0.66060 0.31200
O 	O 	0.82240 0.98709 0.68599 -0.35200
O 	O 	0.88891 0.98634 0.82130 -0.34700
O 	O 	0.74689 0.96190 0.85258 -0.33000
C 	C 	0.74778 0.90316 0.81697 0.33500
O 	O 	0.88157 0.92514 0.64895 -0.32900
O 	O 	0.83333 0.89907 0.61983 -0.36500
H 	H 	0.83391 0.94813 0.85320 0.19600
H 	H 	0.79393 0.93772 0.64289 0.19600
Cu	Cu	0.20955 0.04932 0.77708 0.93800
Cu	Cu	0.17375 0.09848 0.72935 0.89600
Cu	Cu	0.12630 0.05296 0.72505 0.91000
Cu	Cu	0.14826 0.00872 0.80311 0.91600
C 	C 	0.21954 0.01581 0.88926 0.33100
O 	O 	0.22205 0.02452 0.70434 -0.33300
C 	C 	0.10810 0.09382 0.63924 0.32200
O 	O 	0.15266 0.04106 0.81086 -0.62900
O 	O 	0.17916 0.06614 0.70490 -0.63200
O 	O 	0.24386 0.07539 0.80700 -0.33600
O 	O 	0.19382 0.09886 0.82543 -0.39800
O 	O 	0.19780 0.00111 0.85183 -0.34300
O 	O 	0.07534 0.03779 0.73915 -0.33200
C 	C 	0.06743 0.01817 0.77360 0.32600
C 	C 	0.19551 0.01476 0.66226 0.31300
O 	O 	0.15995 0.01161 0.68623 -0.35500
O 	O 	0.09215 0.00936 0.81969 -0.35000
O 	O 	0.23266 0.03497 0.85910 -0.33100
C 	C 	0.23005 0.09409 0.83571 0.33600
O 	O 	0.10086 0.07162 0.65013 -0.32700
O 	O 	0.14335 0.10248 0.64419 -0.37200
H 	H 	0.14383 0.04757 0.85780 0.19600
H 	H 	0.18774 0.06386 0.65388 0.20000
C 	C 	0.99506 0.02154 0.77169 0.10900
C 	C 	0.02792 0.00771 0.76914 -0.09200
C 	C 	0.02287 0.98353 0.76511 0.10700
C 	C 	0.98589 0.97335 0.77386 0.11100
C 	C 	0.95302 0.98719 0.77015 -0.09200
C 	C 	0.95812 0.01129 0.76360 0.10700
Br	Br	0.91530 0.03014 0.73749 -0.17200
Br	Br	0.99967 0.05376 0.79615 -0.13300
Br	Br	0.98127 0.94122 0.80001 -0.13900
Br	Br	0.06583 0.96446 0.74171 -0.16700
C 	C 	0.25418 0.11991 0.93566 0.10500
C 	C 	0.25689 0.11207 0.86302 -0.11000
C 	C 	0.28639 0.12081 0.81714 0.10700
C 	C 	0.31543 0.13538 0.84590 0.10600
C 	C 	0.31205 0.14394 0.91764 -0.11200
C 	C 	0.28098 0.13650 0.96212 0.11500
Br	Br	0.27448 0.14957 0.05813 -0.16100
Br	Br	0.21466 0.10737 0.99949 -0.12800
Br	Br	0.36137 0.14195 0.78923 -0.16800
Br	Br	0.28555 0.11411 0.71377 -0.18200
C 	C 	0.27761 0.25512 0.04178 0.09700
C 	C 	0.29947 0.25241 0.97764 -0.08100
C 	C 	0.28271 0.25668 0.90905 0.11000
C 	C 	0.24304 0.26067 0.90383 0.11100
C 	C 	0.22085 0.26295 0.96789 -0.08100
C 	C 	0.23843 0.26075 0.03694 0.09800
Br	Br	0.20898 0.26577 0.12470 -0.17700
Br	Br	0.30114 0.25056 0.13600 -0.16500
Br	Br	0.21860 0.26123 0.80908 -0.12000
Br	Br	0.31443 0.25748 0.82246 -0.12100
C 	C 	0.93084 0.89663 0.55540 0.11000
C 	C 	0.89893 0.88844 0.59645 -0.09700
C 	C 	0.89577 0.86475 0.61410 0.10600
C 	C 	0.92289 0.84946 0.58650 0.11100
C 	C 	0.95723 0.85815 0.55445 -0.09900
C 	C 	0.96173 0.88209 0.54184 0.10900
Br	Br	0.01127 0.89552 0.51546 -0.19400
Br	Br	0.93079 0.92681 0.51150 -0.11800
Br	Br	0.91150 0.81678 0.58784 -0.14200
Br	Br	0.85736 0.85355 0.68266 -0.20700
C 	C 	0.21971 0.74966 0.58646 0.10700
C 	C 	0.20009 0.75330 0.52022 -0.09500
C 	C 	0.21944 0.75064 0.45322 0.10900
C 	C 	0.25919 0.74679 0.45247 0.10900
C 	C 	0.27874 0.74259 0.51848 -0.09500
C 	C 	0.25883 0.74376 0.58551 0.10500
Br	Br	0.28491 0.73678 0.67567 -0.16900
Br	Br	0.19328 0.75330 0.67833 -0.16400
Br	Br	0.28737 0.74897 0.36165 -0.12400
Br	Br	0.19102 0.75120 0.36257 -0.13300
C 	C 	0.23570 0.98860 0.58892 0.10800
C 	C 	0.20693 0.00518 0.59129 -0.09600
C 	C 	0.19343 0.01486 0.52577 0.10200
C 	C 	0.21079 0.00919 0.45878 0.11000
C 	C 	0.24218 0.99428 0.45765 -0.09900
C 	C 	0.25466 0.98406 0.52290 0.10500
Br	Br	0.29874 0.96456 0.52219 -0.16900
Br	Br	0.24730 0.97108 0.67524 -0.12200
Br	Br	0.19109 0.02141 0.36863 -0.11700
Br	Br	0.15102 0.03563 0.52765 -0.17300
C 	C 	0.22586 0.01879 0.02421 0.09600
C 	C 	0.23693 0.00840 0.95830 -0.09100
C 	C 	0.26708 0.99260 0.95797 0.11600
C 	C 	0.28421 0.98604 0.02428 0.09600
C 	C 	0.27174 0.99567 0.09057 -0.09900
C 	C 	0.24427 0.01305 0.08983 0.10800
Br	Br	0.23347 0.02978 0.17815 -0.13600
Br	Br	0.18476 0.04051 0.02467 -0.17400
Br	Br	0.32477 0.96397 0.02430 -0.16900
Br	Br	0.28577 0.98063 0.86671 -0.11300
C 	C 	0.22565 0.88536 0.44998 0.10800
C 	C 	0.22558 0.89070 0.37487 -0.11100
C 	C 	0.19870 0.87973 0.32790 0.10900
C 	C 	0.16975 0.86515 0.35688 0.10700
C 	C 	0.17035 0.85928 0.43157 -0.10800
C 	C 	0.19861 0.86918 0.47802 0.10800
Br	Br	0.20085 0.86013 0.57936 -0.14600
Br	Br	0.26210 0.90060 0.51453 -0.13200
Br	Br	0.12774 0.85447 0.29532 -0.16600
Br	Br	0.20298 0.88367 0.22339 -0.18600
C 	C 	0.74848 0.01249 0.58750 0.10700
C 	C 	0.77702 0.99575 0.59001 -0.09700
C 	C 	0.79180 0.98682 0.52437 0.10000
C 	C 	0.77518 0.99286 0.45705 0.10900
C 	C 	0.74378 0.00774 0.45551 -0.09900
C 	C 	0.73106 0.01797 0.52061 0.10400
Br	Br	0.68914 0.03909 0.51823 -0.16800
Br	Br	0.73465 0.02864 0.67537 -0.12400
Br	Br	0.79593 0.98121 0.36699 -0.12100
Br	Br	0.83498 0.96661 0.52649 -0.17600
C 	C 	0.69532 0.00909 0.02257 0.09500
C 	C 	0.71084 0.00115 0.08890 -0.09800
C 	C 	0.74015 0.98487 0.08778 0.10800
C 	C 	0.75747 0.97891 0.02127 0.09700
C 	C 	0.74290 0.98739 0.95511 -0.09200
C 	C 	0.71098 0.00189 0.95558 0.11600
Br	Br	0.68865 0.01170 0.86460 -0.11400
Br	Br	0.65306 0.03002 0.02341 -0.16900
Br	Br	0.80251 0.96018 0.02096 -0.17500
Br	Br	0.75491 0.96976 0.17689 -0.13300
C 	C 	0.54522 0.11121 0.16540 0.10200
C 	C 	0.57430 0.10395 0.11755 -0.09600
C 	C 	0.57614 0.11264 0.04570 0.10300
C 	C 	0.55078 0.12979 0.02351 0.10100
C 	C 	0.52154 0.13695 0.07120 -0.09300
C 	C 	0.51876 0.12761 0.14214 0.10300
Br	Br	0.47825 0.13704 0.20702 -0.17000
Br	Br	0.54227 0.09907 0.26353 -0.17400
Br	Br	0.55748 0.14442 0.92953 -0.12700
Br	Br	0.61218 0.10022 0.97679 -0.11100
C 	C 	0.51186 0.00346 0.21763 0.10400
C 	C 	0.53068 0.00859 0.28414 -0.09300
C 	C 	0.51101 0.00525 0.35088 0.10900
C 	C 	0.47314 0.99593 0.35120 0.10900
C 	C 	0.45406 0.99122 0.28462 -0.09400
C 	C 	0.47351 0.99488 0.21786 0.10500
Br	Br	0.44739 0.98835 0.12677 -0.15200
Br	Br	0.53886 0.00800 0.12632 -0.15100
Br	Br	0.44804 0.98864 0.44276 -0.13900
Br	Br	0.53534 0.01440 0.44158 -0.13800
C 	C 	0.99940 0.26056 0.82854 0.10400
C 	C 	0.03942 0.25690 0.82483 -0.09800
C 	C 	0.05425 0.24332 0.76797 0.10600
C 	C 	0.02978 0.23534 0.71149 0.10300
C 	C 	0.98971 0.23857 0.71615 -0.09300
C 	C 	0.97444 0.24998 0.77727 0.10800
Br	Br	0.91952 0.24951 0.79413 -0.12800
Br	Br	0.97897 0.28136 0.90015 -0.15800
Br	Br	0.05149 0.22114 0.62605 -0.14300
Br	Br	0.10736 0.23427 0.76999 -0.13500
C 	C 	0.04000 0.24892 0.27477 0.10800
C 	C 	0.02508 0.26101 0.21454 -0.09600
C 	C 	0.98535 0.26536 0.21143 0.10500
C 	C 	0.96141 0.25933 0.27064 0.10700
C 	C 	0.97539 0.24526 0.32698 -0.09900
C 	C 	0.01472 0.23959 0.32791 0.10300
Br	Br	0.03351 0.21783 0.39833 -0.16300
Br	Br	0.09496 0.24681 0.28806 -0.13400
Br	Br	0.91085 0.27218 0.27778 -0.13000
Br	Br	0.96305 0.27775 0.12376 -0.14800
C 	C 	0.05167 0.11849 0.65892 0.10300
C 	C 	0.07770 0.10837 0.61024 -0.09800
C 	C 	0.07836 0.11503 0.53625 0.10900
C 	C 	0.05383 0.13228 0.51152 0.10900
C 	C 	0.02633 0.14147 0.55931 -0.09500
C 	C 	0.02544 0.13464 0.63319 0.10500
Br	Br	0.98759 0.14697 0.69874 -0.16300
Br	Br	0.05338 0.11105 0.76165 -0.18100
Br	Br	0.05956 0.14440 0.41382 -0.12900
Br	Br	0.11242 0.10022 0.46866 -0.12100
C 	C 	0.81890 0.13379 0.33486 0.10700
C 	C 	0.81558 0.14290 0.40591 -0.11100
C 	C 	0.78477 0.13562 0.45127 0.10800
C 	C 	0.75821 0.11863 0.42642 0.10600
C 	C 	0.76068 0.11035 0.35421 -0.11100
C 	C 	0.78990 0.11893 0.30738 0.10700
Br	Br	0.78862 0.11172 0.20438 -0.18400
Br	Br	0.86471 0.14001 0.27751 -0.18100
Br	Br	0.71949 0.10610 0.49198 -0.13500
Br	Br	0.77815 0.14950 0.54608 -0.14700
C 	C 	0.47019 0.24419 0.30251 0.10800
C 	C 	0.48626 0.23208 0.24354 -0.09400
C 	C 	0.52570 0.22680 0.24484 0.10600
C 	C 	0.54900 0.23429 0.30357 0.10700
C 	C 	0.53413 0.24924 0.35665 -0.09600
C 	C 	0.49439 0.25382 0.35693 0.10400
Br	Br	0.47334 0.27424 0.42901 -0.16800
Br	Br	0.41498 0.24634 0.31113 -0.13500
Br	Br	0.60057 0.22307 0.31362 -0.13800
Br	Br	0.54847 0.21070 0.16407 -0.15500
C 	C 	0.48237 0.23078 0.77982 0.11000
C 	C 	0.47668 0.24317 0.84528 -0.09400
C 	C 	0.49594 0.26469 0.85534 0.10900
C 	C 	0.52279 0.27275 0.80297 0.11200
C 	C 	0.52598 0.26126 0.73541 -0.09300
C 	C 	0.50489 0.24057 0.72335 0.10600
Br	Br	0.50514 0.22628 0.62806 -0.15700
Br	Br	0.46133 0.19990 0.76861 -0.16300
Br	Br	0.55707 0.29838 0.82631 -0.13700
Br	Br	0.48282 0.28426 0.93638 -0.16100
C 	C 	0.73525 0.25637 0.40478 0.11300
C 	C 	0.71694 0.25957 0.47268 -0.09100
C 	C 	0.73817 0.25769 0.53798 0.10800
C 	C 	0.77735 0.25195 0.53540 0.10600
C 	C 	0.79567 0.24903 0.46743 -0.09300
C 	C 	0.77498 0.25235 0.40218 0.11100
Br	Br	0.80146 0.25244 0.30944 -0.11600
Br	Br	0.70550 0.25610 0.31561 -0.12200
Br	Br	0.80564 0.24748 0.62485 -0.16900
Br	Br	0.71380 0.26348 0.63072 -0.17200
C 	C 	0.41170 0.36358 0.62735 0.10800
C 	C 	0.41465 0.38736 0.61065 -0.09900
C 	C 	0.44652 0.39583 0.57024 0.10900
C 	C 	0.47707 0.38129 0.55473 0.10700
C 	C 	0.47192 0.35722 0.56305 -0.09900
C 	C 	0.43810 0.34837 0.59674 0.10900
Br	Br	0.42609 0.31577 0.59588 -0.12400
Br	Br	0.37514 0.35218 0.69909 -0.18900
Br	Br	0.52719 0.39469 0.53288 -0.19000
Br	Br	0.44694 0.42651 0.53000 -0.12400
C 	C 	0.25590 0.37674 0.91428 0.09900
C 	C 	0.24333 0.39821 0.88863 -0.09400
C 	C 	0.20540 0.40457 0.90436 0.10700
C 	C 	0.17750 0.38752 0.92108 0.11300
C 	C 	0.18892 0.36477 0.93425 -0.11400
C 	C 	0.22839 0.35967 0.93446 0.11300
Br	Br	0.24471 0.32947 0.96286 -0.14800
Br	Br	0.30958 0.37242 0.93623 -0.13900
Br	Br	0.12365 0.39492 0.91812 -0.22700
Br	Br	0.19312 0.43655 0.91336 -0.12800
C 	C 	0.54951 0.61472 0.66074 0.10200
C 	C 	0.57960 0.61068 0.61102 -0.09700
C 	C 	0.58158 0.62292 0.54459 0.10800
C 	C 	0.55464 0.63995 0.52959 0.10900
C 	C 	0.52375 0.64338 0.57800 -0.09500
C 	C 	0.52149 0.63096 0.64405 0.10400
Br	Br	0.47948 0.63585 0.71095 -0.16800
Br	Br	0.54717 0.59830 0.75244 -0.17300
Br	Br	0.56113 0.65941 0.44481 -0.13100
Br	Br	0.61983 0.61543 0.47247 -0.12500
C 	C 	0.47949 0.49597 0.80791 0.10900
C 	C 	0.45922 0.49218 0.74209 -0.09500
C 	C 	0.47701 0.49741 0.67471 0.10500
C 	C 	0.51530 0.50605 0.67305 0.10600
C 	C 	0.53565 0.50970 0.73882 -0.09400
C 	C 	0.51746 0.50509 0.80633 0.10900
Br	Br	0.54417 0.51201 0.89655 -0.13700
Br	Br	0.45525 0.48849 0.90016 -0.14100
Br	Br	0.54009 0.51270 0.58075 -0.14300
Br	Br	0.44868 0.49295 0.58487 -0.14600
C 	C 	0.25815 0.48541 0.97526 0.11600
C 	C 	0.24816 0.49669 0.91005 -0.09500
C 	C 	0.22029 0.51393 0.91142 0.10900
C 	C 	0.20448 0.52088 0.97854 0.11400
C 	C 	0.21588 0.51024 0.04392 -0.10700
C 	C 	0.24105 0.49169 0.04165 0.10200
Br	Br	0.25024 0.47404 0.12888 -0.14100
Br	Br	0.29545 0.46138 0.97373 -0.17500
Br	Br	0.16688 0.54474 0.98081 -0.15700
Br	Br	0.20238 0.52717 0.82147 -0.11000
C 	C 	0.24875 0.50814 0.54268 0.10700
C 	C 	0.27590 0.49060 0.54380 -0.10000
C 	C 	0.28890 0.48112 0.47765 0.10400
C 	C 	0.27361 0.48866 0.41070 0.10800
C 	C 	0.24420 0.50495 0.41030 -0.10000
C 	C 	0.23156 0.51448 0.47650 0.10400
Br	Br	0.18966 0.53561 0.47671 -0.17000
Br	Br	0.23713 0.52454 0.63113 -0.13500
Br	Br	0.29385 0.47733 0.31981 -0.12100
Br	Br	0.32747 0.45781 0.47878 -0.16800
C 	C 	0.29193 0.62099 0.30757 0.10600
C 	C 	0.26209 0.61039 0.34878 -0.11000
C 	C 	0.25782 0.61591 0.42334 0.10600
C 	C 	0.28313 0.63217 0.45618 0.10800
C 	C 	0.31427 0.64167 0.41586 -0.11100
C 	C 	0.31943 0.63535 0.34224 0.10700
Br	Br	0.36554 0.64500 0.29035 -0.18200
Br	Br	0.29340 0.61732 0.20271 -0.18200
Br	Br	0.27440 0.64205 0.55537 -0.15000
Br	Br	0.21815 0.60071 0.48093 -0.13300
C 	C 	0.71965 0.51179 0.40480 0.11000
C 	C 	0.74750 0.49455 0.40285 -0.09500
C 	C 	0.75871 0.48374 0.46813 0.10900
C 	C 	0.74234 0.49022 0.53496 0.11000
C 	C 	0.71714 0.50875 0.53764 -0.09800
C 	C 	0.70505 0.51921 0.47240 0.10600
Br	Br	0.66861 0.54370 0.47567 -0.16200
Br	Br	0.70013 0.52439 0.31512 -0.11100
Br	Br	0.75261 0.47286 0.62234 -0.13500
Br	Br	0.79702 0.46031 0.46624 -0.17900
C 	C 	0.73150 0.50978 0.96953 0.11300
C 	C 	0.74550 0.50098 0.90333 -0.10000
C 	C 	0.77585 0.48531 0.90401 0.10900
C 	C 	0.79104 0.47786 0.97115 0.11400
C 	C 	0.77733 0.48707 0.03715 -0.10900
C 	C 	0.74905 0.50395 0.03577 0.10000
Br	Br	0.73623 0.52016 0.12400 -0.13700
Br	Br	0.68691 0.52884 0.96984 -0.16900
Br	Br	0.83007 0.45483 0.97287 -0.15300
Br	Br	0.79725 0.47460 0.81334 -0.11500
C 	C 	0.74700 0.36941 0.37676 0.10800
C 	C 	0.73874 0.39312 0.37168 -0.10300
C 	C 	0.70357 0.40086 0.39974 0.11100
C 	C 	0.67395 0.38492 0.41691 0.10800
C 	C 	0.68235 0.36137 0.42352 -0.10500
C 	C 	0.72011 0.35417 0.40976 0.11100
Br	Br	0.73605 0.32429 0.44158 -0.14600
Br	Br	0.79248 0.35709 0.33219 -0.20700
Br	Br	0.62151 0.39508 0.42024 -0.19800
Br	Br	0.69667 0.43310 0.41866 -0.13200
C 	C 	0.91807 0.37854 0.04555 0.10400
C 	C 	0.92255 0.38910 0.11441 -0.09500
C 	C 	0.95405 0.38370 0.15915 0.10400
C 	C 	0.98064 0.36744 0.13568 0.10300
C 	C 	0.97609 0.35680 0.06694 -0.09200
C 	C 	0.94427 0.36195 0.02267 0.10200
Br	Br	0.93604 0.34574 0.93176 -0.11600
Br	Br	0.87674 0.38738 0.98177 -0.11900
Br	Br	0.02384 0.36003 0.19701 -0.17600
Br	Br	0.96042 0.39846 0.25305 -0.17100
C 	C 	0.01595 0.50622 0.17154 0.10400
C 	C 	0.03415 0.51175 0.23830 -0.09400
C 	C 	0.01409 0.50853 0.30464 0.10900
C 	C 	0.97645 0.49890 0.30440 0.10900
C 	C 	0.95823 0.49335 0.23758 -0.09500
C 	C 	0.97797 0.49705 0.17117 0.10500
Br	Br	0.95280 0.48965 0.07977 -0.15400
Br	Br	0.04328 0.51103 0.08073 -0.15200
Br	Br	0.95029 0.49257 0.39559 -0.14400
Br	Br	0.03789 0.51789 0.39563 -0.13800
C 	C 	0.97279 0.76952 0.87971 0.10700
C 	C 	0.95182 0.74855 0.86951 -0.09300
C 	C 	0.95338 0.73734 0.80072 0.10600
C 	C 	0.97483 0.74737 0.74328 0.10600
C 	C 	0.99927 0.76658 0.75653 -0.09300
C 	C 	0.99875 0.77746 0.82545 0.11100
Br	Br	0.03493 0.80227 0.84737 -0.13100
Br	Br	0.96249 0.78885 0.96281 -0.13700
Br	Br	0.96970 0.73526 0.64538 -0.14900
Br	Br	0.92821 0.70769 0.78529 -0.16800
C 	C 	0.00337 0.75369 0.24331 0.10400
C 	C 	0.98060 0.73360 0.25395 -0.09600
C 	C 	0.98169 0.72200 0.32161 0.11000
C 	C 	0.00642 0.73021 0.37757 0.10600
C 	C 	0.02634 0.75161 0.36945 -0.09400
C 	C 	0.02430 0.76346 0.30186 0.10600
Br	Br	0.04850 0.79354 0.28957 -0.17600
Br	Br	0.00686 0.76742 0.14736 -0.15500
Br	Br	0.01604 0.71093 0.46116 -0.14300
Br	Br	0.94816 0.69557 0.33911 -0.13100
C 	C 	0.07954 0.62174 0.03222 0.10300
C 	C 	0.07817 0.61156 0.10212 -0.09800
C 	C 	0.04861 0.61713 0.15127 0.10200
C 	C 	0.02075 0.63306 0.13098 0.10100
C 	C 	0.02248 0.64354 0.06158 -0.09800
C 	C 	0.05239 0.63823 0.01278 0.10300
Br	Br	0.05719 0.65434 0.92090 -0.13000
Br	Br	0.11750 0.61228 0.96207 -0.11500
Br	Br	0.97968 0.64024 0.19773 -0.17300
Br	Br	0.04676 0.60320 0.24706 -0.17500
C 	C 	0.78510 0.62618 0.96403 0.11600
C 	C 	0.81254 0.63889 0.92267 -0.11500
C 	C 	0.81690 0.63429 0.84752 0.10700
C 	C 	0.79106 0.61901 0.81225 0.10600
C 	C 	0.76379 0.60615 0.85348 -0.10800
C 	C 	0.76120 0.60951 0.92958 0.10500
Br	Br	0.72547 0.59096 0.98670 -0.12600
Br	Br	0.78021 0.63160 0.06761 -0.14200
Br	Br	0.79124 0.61692 0.70690 -0.17900
Br	Br	0.86022 0.64740 0.79423 -0.17100
C 	C 	0.46739 0.77704 0.28438 0.10400
C 	C 	0.50710 0.77240 0.28281 -0.09400
C 	C 	0.52377 0.76080 0.34218 0.10900
C 	C 	0.49999 0.75001 0.39497 0.10300
C 	C 	0.46003 0.75396 0.39504 -0.09900
C 	C 	0.44464 0.76923 0.34347 0.10700
Br	Br	0.39334 0.78058 0.35631 -0.13700
Br	Br	0.44334 0.79224 0.20325 -0.14400
Br	Br	0.52181 0.72838 0.46245 -0.16400
Br	Br	0.57902 0.76102 0.35376 -0.14500
C 	C 	0.47625 0.75088 0.89241 0.10500
C 	C 	0.51623 0.74690 0.89223 -0.10100
C 	C 	0.53167 0.73228 0.83886 0.10800
C 	C 	0.50902 0.72524 0.77882 0.10400
C 	C 	0.46902 0.72912 0.77893 -0.09200
C 	C 	0.45238 0.74020 0.83948 0.10700
Br	Br	0.39729 0.73892 0.85365 -0.13100
Br	Br	0.45456 0.77248 0.96010 -0.15700
Br	Br	0.53369 0.71268 0.69379 -0.14300
Br	Br	0.58292 0.72071 0.85040 -0.13300
C 	C 	0.69689 0.86818 0.96390 0.11700
C 	C 	0.66845 0.85628 0.92239 -0.11200
C 	C 	0.66500 0.86079 0.84691 0.10800
C 	C 	0.69233 0.87521 0.81184 0.10800
C 	C 	0.72119 0.88670 0.85299 -0.10500
C 	C 	0.72351 0.88318 0.92894 0.10700
Br	Br	0.76309 0.89903 0.98503 -0.13400
Br	Br	0.69844 0.86477 0.06879 -0.14400
Br	Br	0.69111 0.87862 0.70691 -0.18200
Br	Br	0.62068 0.84922 0.79314 -0.18000
C 	C 	0.40645 0.88331 0.06155 0.10300
C 	C 	0.41000 0.89366 0.13096 -0.09500
C 	C 	0.44081 0.88796 0.17713 0.10200
C 	C 	0.46730 0.87145 0.15484 0.10500
C 	C 	0.46275 0.86038 0.08673 -0.09600
C 	C 	0.43176 0.86596 0.04081 0.10500
Br	Br	0.42258 0.84885 0.95186 -0.12400
Br	Br	0.36817 0.89375 0.99358 -0.11400
Br	Br	0.51024 0.86422 0.21709 -0.17400
Br	Br	0.44612 0.90237 0.27181 -0.17300
C 	C 	0.76582 0.76567 0.02924 0.10200
C 	C 	0.77581 0.74231 0.03629 -0.09200
C 	C 	0.74620 0.72551 0.04684 0.10400
C 	C 	0.70758 0.73124 0.03572 0.10800
C 	C 	0.69760 0.75469 0.03428 -0.09300
C 	C 	0.72721 0.77176 0.03819 0.10600
Br	Br	0.71542 0.80299 0.06266 -0.16500
Br	Br	0.80280 0.78885 0.99654 -0.12400
Br	Br	0.67064 0.70712 0.01051 -0.13500
Br	Br	0.75808 0.69530 0.08231 -0.15500
