data_crystal

_cell_length_a 38.70217
_cell_length_b 39.59866
_cell_length_c 20.52979
_cell_angle_alpha 93.50301
_cell_angle_beta  92.95105
_cell_angle_gamma 90.05321

_symmetry_space_group_name_	'P 1'
_symmetry_space_group_name_H-M	'P 1'

loop_
_symmetry_equiv_pos_as_xyz
  x,y,z

loop_
_atom_site_label
_atom_site_type_symbol
_atom_site_fract_x
_atom_site_fract_y
_atom_site_fract_z
_atom_site_charge
Cd	Cd	0.10363 0.84383 0.23964 1.24400
Cd	Cd	0.08493 0.87775 0.39826 1.24500
O 	O 	0.13482 0.78986 0.23232 -0.29800
O 	O 	0.11095 0.81141 0.14556 -0.33500
C 	C 	0.12518 0.78502 0.17094 0.26900
O 	O 	0.06806 0.88778 0.22176 -0.34800
O 	O 	0.08013 0.91610 0.32154 -0.38000
C 	C 	0.06149 0.91252 0.26592 0.38200
C 	C 	0.04858 0.81506 0.30530 0.38900
O 	O 	0.13656 0.86465 0.34960 -0.40600
O 	O 	0.04685 0.80624 0.24305 -0.27800
O 	O 	0.07599 0.83219 0.32619 -0.50000
C 	C 	0.15459 0.88469 0.31627 0.38700
O 	O 	0.15053 0.88019 0.25277 -0.31300
Cd	Cd	0.97633 0.92627 0.01573 1.25300
Cd	Cd	0.00068 0.97861 0.89118 1.21300
O 	O 	0.01279 0.87702 0.03698 -0.28700
O 	O 	0.96755 0.88886 0.09374 -0.28000
C 	C 	0.99219 0.86749 0.08045 0.27900
O 	O 	0.94160 0.97121 0.02831 -0.31900
O 	O 	0.94689 0.98842 0.92473 -0.40900
C 	C 	0.93966 0.99518 0.98623 0.37800
C 	C 	0.03255 0.97206 0.04052 0.41100
O 	O 	0.98605 0.92150 0.88897 -0.39400
O 	O 	0.02261 0.96139 0.09559 -0.25300
O 	O 	0.01820 0.95752 0.98795 -0.52600
C 	C 	0.95527 0.90809 0.88063 0.36200
O 	O 	0.93958 0.90258 0.93374 -0.33300
C 	C 	0.96749 0.68449 0.94000 0.11700
N 	N 	0.94246 0.66389 0.95981 -0.14000
C 	C 	0.92866 0.63896 0.91800 0.13100
N 	N 	0.93909 0.63529 0.85586 -0.14300
C 	C 	0.96368 0.65611 0.83563 0.13300
N 	N 	0.97839 0.68021 0.87812 -0.13700
C 	C 	0.02922 0.62990 0.25883 0.11700
N 	N 	0.02730 0.63727 0.32408 -0.13300
C 	C 	0.01448 0.61404 0.36260 0.13200
N 	N 	0.00249 0.58394 0.33533 -0.14300
C 	C 	0.00381 0.57670 0.27002 0.12800
N 	N 	0.01717 0.59974 0.23176 -0.14100
Cd	Cd	0.82412 0.95867 0.64080 1.24700
Cd	Cd	0.85205 0.95189 0.80789 1.21600
O 	O 	0.77190 0.92645 0.60611 -0.30400
O 	O 	0.79290 0.96348 0.54355 -0.31700
C 	C 	0.76753 0.94301 0.55376 0.26700
O 	O 	0.86743 0.99697 0.65812 -0.33800
O 	O 	0.89330 0.97111 0.74532 -0.37300
C 	C 	0.89055 0.99717 0.70823 0.41700
C 	C 	0.78958 0.99714 0.73964 0.40900
O 	O 	0.84259 0.91249 0.72062 -0.43600
O 	O 	0.78115 0.00717 0.68166 -0.27200
O 	O 	0.80838 0.97005 0.74044 -0.51600
C 	C 	0.86570 0.90190 0.68035 0.39400
O 	O 	0.86456 0.91585 0.62416 -0.32800
Cd	Cd	0.88091 0.87855 0.45529 1.24800
Cd	Cd	0.94211 0.88581 0.33402 1.21800
O 	O 	0.83402 0.83763 0.42676 -0.29000
O 	O 	0.83618 0.86769 0.51946 -0.32300
C 	C 	0.81759 0.84832 0.47747 0.26600
O 	O 	0.92360 0.91038 0.50685 -0.31600
O 	O 	0.94461 0.92816 0.41224 -0.41200
C 	C 	0.94886 0.92349 0.47513 0.38600
C 	C 	0.93148 0.82769 0.43861 0.41500
O 	O 	0.88268 0.89495 0.33233 -0.39900
O 	O 	0.91674 0.82444 0.49382 -0.25300
O 	O 	0.91797 0.84970 0.40107 -0.53000
C 	C 	0.86666 0.92274 0.34996 0.36600
O 	O 	0.85775 0.92554 0.41037 -0.34300
C 	C 	0.58707 0.95442 0.65251 0.11700
N 	N 	0.56395 0.98001 0.64676 -0.14200
C 	C 	0.54306 0.98834 0.69639 0.12600
N 	N 	0.54588 0.97168 0.75226 -0.14100
C 	C 	0.56917 0.94637 0.75848 0.13100
N 	N 	0.58973 0.93774 0.70856 -0.13700
C 	C 	0.63383 0.89508 0.32364 0.11700
N 	N 	0.60878 0.90680 0.36299 -0.14000
C 	C 	0.57674 0.91382 0.33707 0.12900
N 	N 	0.57012 0.90948 0.27141 -0.14300
C 	C 	0.59550 0.89917 0.23160 0.13000
N 	N 	0.62737 0.89198 0.25787 -0.13800
Cd	Cd	0.91884 0.08552 0.22239 1.24900
Cd	Cd	0.91230 0.03807 0.36359 1.21900
O 	O 	0.88480 0.13756 0.22512 -0.29500
O 	O 	0.92013 0.12576 0.14626 -0.30200
C 	C 	0.89763 0.14646 0.17167 0.27200
O 	O 	0.95883 0.04422 0.21018 -0.31100
O 	O 	0.93265 0.00822 0.27657 -0.36900
C 	C 	0.95944 0.01644 0.24342 0.41400
C 	C 	0.95781 0.10660 0.33945 0.41900
O 	O 	0.87196 0.05594 0.28628 -0.42900
O 	O 	0.96805 0.12237 0.28980 -0.25500
O 	O 	0.93018 0.08821 0.32776 -0.51200
C 	C 	0.86190 0.03891 0.23238 0.38900
O 	O 	0.87602 0.04802 0.17971 -0.29800
Cd	Cd	0.81908 0.17613 0.96210 1.24500
Cd	Cd	0.86153 0.13137 0.83323 1.25300
O 	O 	0.77100 0.21307 0.92966 -0.30200
O 	O 	0.78640 0.20754 0.03244 -0.34700
C 	C 	0.76758 0.22369 0.99007 0.27000
O 	O 	0.85352 0.13948 0.01403 -0.35200
O 	O 	0.89081 0.13455 0.93090 -0.36200
C 	C 	0.87865 0.12319 0.98425 0.40800
C 	C 	0.78755 0.11696 0.89974 0.41600
O 	O 	0.85385 0.18825 0.85931 -0.40700
O 	O 	0.77203 0.12617 0.95308 -0.25800
O 	O 	0.80983 0.13842 0.88134 -0.51200
C 	C 	0.87463 0.20742 0.89754 0.38200
O 	O 	0.86491 0.21313 0.95714 -0.33100
C 	C 	0.73947 0.39805 0.86417 0.11500
N 	N 	0.73448 0.39406 0.79809 -0.13900
C 	C 	0.74250 0.41954 0.76009 0.13000
N 	N 	0.75445 0.44935 0.78867 -0.14300
C 	C 	0.76206 0.45265 0.85402 0.12900
N 	N 	0.75457 0.42686 0.89184 -0.14100
C 	C 	0.82839 0.32661 0.21772 0.11800
N 	N 	0.84524 0.35325 0.19496 -0.14100
C 	C 	0.84463 0.38413 0.22765 0.13000
N 	N 	0.82718 0.38819 0.28339 -0.14200
C 	C 	0.80880 0.36209 0.30428 0.13100
N 	N 	0.80978 0.33125 0.27186 -0.13900
Cd	Cd	0.06634 0.13179 0.83313 1.24700
Cd	Cd	0.00768 0.12015 0.95646 1.25500
O 	O 	0.11958 0.16379 0.86408 -0.29600
O 	O 	0.11194 0.13673 0.76803 -0.32000
C 	C 	0.13264 0.15452 0.80887 0.26800
O 	O 	0.02623 0.09543 0.78630 -0.33500
O 	O 	0.98322 0.11183 0.85471 -0.36100
C 	C 	0.99441 0.09200 0.80626 0.37700
C 	C 	0.08163 0.08263 0.92631 0.39100
O 	O 	0.02933 0.16849 0.91433 -0.40400
O 	O 	0.10062 0.07835 0.87580 -0.25700
O 	O 	0.06251 0.10953 0.92728 -0.50200
C 	C 	0.01633 0.18372 0.86415 0.38400
O 	O 	0.03077 0.17657 0.80894 -0.31000
Cd	Cd	0.12925 0.04950 0.56112 1.24900
Cd	Cd	0.08862 0.02864 0.40462 1.24200
O 	O 	0.16767 0.09924 0.57045 -0.29500
O 	O 	0.15856 0.06994 0.65503 -0.32500
C 	C 	0.17583 0.09424 0.63120 0.26900
O 	O 	0.09012 0.00932 0.58000 -0.31900
O 	O 	0.08847 0.98689 0.47426 -0.37500
C 	C 	0.07511 0.98969 0.53213 0.40200
C 	C 	0.07146 0.08789 0.51732 0.41700
O 	O 	0.14611 0.03293 0.44083 -0.40200
O 	O 	0.07794 0.09410 0.58011 -0.24800
O 	O 	0.09421 0.06965 0.48750 -0.51400
C 	C 	0.16498 0.00869 0.46372 0.38400
O 	O 	0.16801 0.00847 0.52731 -0.31600
C 	C 	0.32858 0.16154 0.92436 0.11800
N 	N 	0.33690 0.16818 0.98897 -0.13800
C 	C 	0.36965 0.16270 0.01328 0.13000
N 	N 	0.39392 0.15049 0.97246 -0.14300
C 	C 	0.38494 0.14177 0.90877 0.13100
N 	N 	0.35242 0.14778 0.88474 -0.14100
C 	C 	0.36767 0.09910 0.58224 0.11300
N 	N 	0.36487 0.11864 0.52997 -0.14000
C 	C 	0.38831 0.11573 0.48295 0.12900
N 	N 	0.41565 0.09464 0.48997 -0.14300
C 	C 	0.41916 0.07566 0.54273 0.12700
N 	N 	0.39506 0.07781 0.58868 -0.14100
C 	C 	0.37716 0.16407 0.08495 -0.04800
C 	C 	0.36323 0.18985 0.12670 0.10600
C 	C 	0.36378 0.18594 0.19435 -0.08400
C 	C 	0.38075 0.15839 0.22139 -0.00300
C 	C 	0.39794 0.13457 0.18029 0.07500
C 	C 	0.39548 0.13735 0.11239 -0.05000
N 	N 	0.35069 0.21890 0.10258 -0.19800
H 	H 	0.35150 0.20468 0.22614 0.06000
C 	C 	0.37824 0.15325 0.29195 -0.00200
N 	N 	0.41657 0.10888 0.20560 -0.19300
H 	H 	0.40708 0.11809 0.08075 0.05200
C 	C 	0.35365 0.13028 0.31090 -0.08500
C 	C 	0.35555 0.11845 0.37409 0.10900
C 	C 	0.38152 0.13144 0.42027 -0.05000
C 	C 	0.40411 0.15672 0.40291 -0.05100
C 	C 	0.40286 0.16769 0.33901 0.07100
H 	H 	0.33431 0.11990 0.27506 0.06700
N 	N 	0.33322 0.09386 0.38918 -0.20000
H 	H 	0.42360 0.16699 0.43857 0.04900
N 	N 	0.42570 0.19157 0.32293 -0.19400
H 	H 	0.31398 0.08482 0.35491 0.10500
H 	H 	0.33500 0.08299 0.43421 0.10500
H 	H 	0.44427 0.20155 0.35762 0.08800
H 	H 	0.42492 0.20087 0.27640 0.09100
H 	H 	0.42837 0.09090 0.17473 0.08900
H 	H 	0.42032 0.10695 0.25595 0.09300
H 	H 	0.35475 0.22484 0.05471 0.09700
H 	H 	0.33873 0.23695 0.13305 0.09300
C 	C 	0.21074 0.10355 0.65794 -0.05200
C 	C 	0.22209 0.13713 0.65583 0.00800
C 	C 	0.25740 0.14436 0.65389 -0.05400
C 	C 	0.28153 0.11792 0.65290 0.02900
C 	C 	0.27059 0.08477 0.66380 0.01400
C 	C 	0.23518 0.07793 0.66806 -0.02100
C 	C 	0.29465 0.05830 0.66266 -0.03900
C 	C 	0.32803 0.06375 0.64236 -0.02100
C 	C 	0.33772 0.09583 0.62347 -0.00700
C 	C 	0.31538 0.12341 0.63394 -0.04700
H 	H 	0.20342 0.15731 0.65096 0.05000
H 	H 	0.26568 0.17016 0.64867 0.05200
H 	H 	0.22648 0.05213 0.67219 0.06400
H 	H 	0.28691 0.03302 0.67350 0.05900
H 	H 	0.34549 0.04251 0.63703 0.04800
H 	H 	0.32338 0.14853 0.62246 0.05200
C 	C 	0.17025 0.15162 0.80589 -0.04800
C 	C 	0.18521 0.11933 0.80249 0.00900
C 	C 	0.22014 0.11517 0.82073 -0.04800
C 	C 	0.24030 0.14318 0.84407 0.03200
C 	C 	0.22568 0.17590 0.84568 0.01200
C 	C 	0.19099 0.18002 0.82440 -0.01600
C 	C 	0.24520 0.20368 0.87283 -0.03800
C 	C 	0.27858 0.19884 0.89989 -0.02300
C 	C 	0.29309 0.16640 0.89838 -0.00400
C 	C 	0.27424 0.13874 0.86912 -0.04600
H 	H 	0.16932 0.09721 0.78906 0.07200
H 	H 	0.23114 0.08999 0.81897 0.06300
H 	H 	0.17939 0.20497 0.82728 0.05400
H 	H 	0.23426 0.22888 0.87433 0.05000
H 	H 	0.29329 0.22036 0.92153 0.04400
H 	H 	0.28570 0.11371 0.86741 0.05700
C 	C 	0.74664 0.41224 0.68949 -0.04800
C 	C 	0.71993 0.39677 0.64822 0.10400
C 	C 	0.72663 0.38661 0.58326 -0.08500
C 	C 	0.75888 0.39311 0.55825 -0.00400
C 	C 	0.78474 0.41062 0.59830 0.07400
C 	C 	0.77858 0.41942 0.66381 -0.05000
N 	N 	0.68765 0.39258 0.66982 -0.19900
H 	H 	0.70663 0.37385 0.55197 0.05800
C 	C 	0.76565 0.38079 0.49056 -0.00600
N 	N 	0.81551 0.41904 0.57420 -0.19300
H 	H 	0.79892 0.43156 0.69523 0.05200
C 	C 	0.75528 0.40064 0.43884 -0.08500
C 	C 	0.76681 0.39317 0.37585 0.10200
C 	C 	0.79051 0.36639 0.36552 -0.04700
C 	C 	0.79870 0.34499 0.41603 -0.05300
C 	C 	0.78595 0.35159 0.47830 0.07800
H 	H 	0.73869 0.42230 0.44788 0.05600
N 	N 	0.75440 0.41114 0.32539 -0.19800
H 	H 	0.81583 0.32370 0.40742 0.06100
N 	N 	0.79363 0.33014 0.52622 -0.19400
H 	H 	0.73835 0.43198 0.33395 0.08700
H 	H 	0.75892 0.40348 0.27702 0.09100
H 	H 	0.80960 0.30926 0.51739 0.10200
H 	H 	0.78303 0.33335 0.57193 0.10000
H 	H 	0.83476 0.43120 0.60466 0.09000
H 	H 	0.82037 0.41442 0.52493 0.09500
H 	H 	0.68072 0.40326 0.71502 0.09500
H 	H 	0.66853 0.37989 0.63990 0.08900
C 	C 	0.93613 0.22224 0.93163 0.27900
C 	C 	0.91130 0.21143 0.88220 -0.21100
C 	C 	0.92249 0.19959 0.82078 0.26200
C 	C 	0.95750 0.19300 0.81278 0.28500
C 	C 	0.98172 0.19901 0.86569 -0.20700
C 	C 	0.97117 0.21571 0.92359 0.26300
F 	F 	0.99478 0.22458 0.97290 -0.39500
F 	F 	0.92631 0.23841 0.98784 -0.40100
F 	F 	0.96756 0.17901 0.75478 -0.36200
F 	F 	0.89931 0.19332 0.76952 -0.41000
C 	C 	0.73241 0.36955 0.90461 -0.00600
C 	C 	0.70311 0.34905 0.88942 -0.02400
C 	C 	0.70034 0.31767 0.91646 -0.03800
C 	C 	0.72717 0.30621 0.95801 0.01000
C 	C 	0.75511 0.32808 0.97820 0.03000
C 	C 	0.75723 0.36001 0.95231 -0.04900
C 	C 	0.78242 0.31626 0.01810 -0.05400
C 	C 	0.78448 0.28191 0.02984 0.00600
C 	C 	0.75848 0.25932 0.00422 -0.05600
C 	C 	0.72844 0.27215 0.97354 -0.01600
H 	H 	0.68320 0.35679 0.85443 0.04400
H 	H 	0.67828 0.30151 0.90217 0.04700
H 	H 	0.77951 0.37614 0.96522 0.05400
H 	H 	0.80351 0.33303 0.03551 0.05400
H 	H 	0.80815 0.27228 0.05197 0.04800
H 	H 	0.70793 0.25487 0.95515 0.05100
C 	C 	0.99146 0.06941 0.41190 0.27100
C 	C 	0.98127 0.10206 0.39663 -0.24000
C 	C 	0.99747 0.13027 0.43025 0.29300
C 	C 	0.02527 0.12568 0.47528 0.28000
C 	C 	0.03698 0.09292 0.48651 -0.21800
C 	C 	0.01878 0.06494 0.45698 0.25500
F 	F 	0.02963 0.03324 0.46739 -0.47300
F 	F 	0.97728 0.04195 0.37821 -0.50900
F 	F 	0.04221 0.15304 0.50460 -0.37800
F 	F 	0.98728 0.16206 0.41715 -0.38100
C 	C 	0.88779 0.17855 0.14389 -0.03400
C 	C 	0.91341 0.20231 0.13275 0.02200
C 	C 	0.90550 0.23688 0.13508 -0.02700
C 	C 	0.87203 0.24779 0.14954 0.03400
C 	C 	0.84555 0.22361 0.15411 0.01800
C 	C 	0.85330 0.18908 0.14718 -0.02300
C 	C 	0.81262 0.23413 0.17223 -0.03500
C 	C 	0.80653 0.26813 0.18955 -0.02100
C 	C 	0.83314 0.29216 0.18813 -0.00800
C 	C 	0.86548 0.28215 0.16530 -0.04200
H 	H 	0.93994 0.19431 0.12758 0.08200
H 	H 	0.92586 0.25516 0.12970 0.08600
H 	H 	0.83318 0.17046 0.15230 0.06600
H 	H 	0.79204 0.21579 0.17515 0.06100
H 	H 	0.78123 0.27575 0.20515 0.04900
H 	H 	0.88607 0.30065 0.16387 0.06100
C 	C 	0.55148 0.93214 0.37789 -0.04800
C 	C 	0.54645 0.92377 0.44293 0.10400
C 	C 	0.52747 0.94579 0.48374 -0.08600
C 	C 	0.50960 0.97325 0.45826 -0.00100
C 	C 	0.51192 0.97969 0.39150 0.07000
C 	C 	0.53376 0.95979 0.35268 -0.05000
N 	N 	0.55762 0.89375 0.46490 -0.19800
H 	H 	0.52516 0.94055 0.53458 0.05600
C 	C 	0.48912 0.99566 0.50190 -0.01000
N 	N 	0.49326 0.00488 0.36438 -0.19100
H 	H 	0.53714 0.96603 0.30268 0.05200
C 	C 	0.50254 0.02764 0.52265 -0.07600
C 	C 	0.48029 0.05421 0.54071 0.10100
C 	C 	0.44434 0.04779 0.54238 -0.05000
C 	C 	0.43199 0.01448 0.53226 -0.04700
C 	C 	0.45398 0.98833 0.51113 0.06900
H 	H 	0.52991 0.03265 0.51912 0.06000
N 	N 	0.49348 0.08579 0.55510 -0.19900
H 	H 	0.40471 0.00930 0.53661 0.05300
N 	N 	0.44110 0.95649 0.49859 -0.19400
H 	H 	0.52014 0.09008 0.55528 0.09000
H 	H 	0.47752 0.10637 0.56578 0.08900
H 	H 	0.41491 0.95149 0.50396 0.09200
H 	H 	0.45703 0.93627 0.48516 0.09200
H 	H 	0.49598 0.01006 0.31559 0.09000
H 	H 	0.47514 0.01885 0.39052 0.09500
H 	H 	0.56731 0.87485 0.43324 0.09500
H 	H 	0.55407 0.88799 0.51310 0.08700
C 	C 	0.51931 0.01706 0.69215 -0.04400
C 	C 	0.48318 0.01162 0.68917 0.10700
C 	C 	0.46131 0.03786 0.71025 -0.08300
C 	C 	0.47521 0.06891 0.73572 -0.00400
C 	C 	0.51068 0.07585 0.72924 0.07600
C 	C 	0.53243 0.04980 0.70659 -0.05300
N 	N 	0.46950 0.98108 0.66758 -0.20100
H 	H 	0.43371 0.03331 0.71133 0.06100
C 	C 	0.45470 0.09003 0.78135 -0.00200
N 	N 	0.52411 0.10709 0.74622 -0.19500
H 	H 	0.56001 0.05436 0.70531 0.06000
C 	C 	0.45208 0.08000 0.84523 -0.08400
C 	C 	0.42808 0.09529 0.88644 0.10600
C 	C 	0.40973 0.12417 0.86641 -0.04900
C 	C 	0.41356 0.13521 0.80349 -0.05100
C 	C 	0.43517 0.11787 0.76007 0.07200
H 	H 	0.46689 0.05849 0.86113 0.06000
N 	N 	0.42109 0.08078 0.94273 -0.19900
H 	H 	0.39924 0.15708 0.78787 0.05200
N 	N 	0.43719 0.12816 0.69841 -0.19400
H 	H 	0.43673 0.06135 0.95974 0.09000
H 	H 	0.39846 0.08632 0.96667 0.09700
H 	H 	0.42199 0.14817 0.68255 0.08800
H 	H 	0.45400 0.11665 0.66588 0.09000
H 	H 	0.55053 0.11176 0.74297 0.09600
H 	H 	0.50836 0.12720 0.76108 0.09300
H 	H 	0.48500 0.96187 0.64777 0.09100
H 	H 	0.44286 0.97679 0.66770 0.08900
C 	C 	0.57471 0.93094 0.82187 -0.04500
C 	C 	0.54693 0.91613 0.85237 0.10200
C 	C 	0.55114 0.90841 0.91820 -0.08300
C 	C 	0.58288 0.91419 0.95321 -0.00700
C 	C 	0.61158 0.92602 0.92089 0.08100
C 	C 	0.60712 0.93448 0.85551 -0.05300
N 	N 	0.51644 0.90875 0.81851 -0.19800
H 	H 	0.52950 0.89836 0.94254 0.05800
C 	C 	0.58498 0.91032 0.02475 -0.00200
N 	N 	0.64326 0.92973 0.95249 -0.19500
H 	H 	0.62864 0.94501 0.83154 0.06700
C 	C 	0.59236 0.87842 0.04814 -0.08500
C 	C 	0.59469 0.87387 0.11563 0.10500
C 	C 	0.59039 0.90205 0.16037 -0.04700
C 	C 	0.58243 0.93380 0.13687 -0.05000
C 	C 	0.57951 0.93823 0.06949 0.07500
H 	H 	0.59608 0.85702 0.01371 0.06000
N 	N 	0.60016 0.84234 0.13691 -0.19900
H 	H 	0.57893 0.95529 0.17122 0.05300
N 	N 	0.57156 0.96931 0.04818 -0.19300
H 	H 	0.60429 0.82189 0.10361 0.09200
H 	H 	0.59919 0.83756 0.18623 0.09700
H 	H 	0.56787 0.98980 0.08164 0.09100
H 	H 	0.56868 0.97347 0.99848 0.09600
H 	H 	0.66409 0.93925 0.92872 0.10600
H 	H 	0.64774 0.92259 0.00029 0.10200
H 	H 	0.51361 0.91113 0.76814 0.09400
H 	H 	0.49560 0.89907 0.84202 0.09000
C 	C 	0.82768 0.97017 0.31948 0.26100
C 	C 	0.85212 0.94552 0.30129 -0.21800
C 	C 	0.86691 0.94703 0.24043 0.27600
C 	C 	0.86449 0.97692 0.20744 0.27100
C 	C 	0.84719 0.00493 0.23565 -0.19400
C 	C 	0.82464 0.99956 0.28540 0.24200
F 	F 	0.80355 0.02481 0.30676 -0.39100
F 	F 	0.80845 0.96659 0.37212 -0.40800
F 	F 	0.88187 0.97982 0.15230 -0.34500
F 	F 	0.88432 0.92015 0.21444 -0.39000
C 	C 	0.01226 0.91904 0.49917 0.26300
C 	C 	0.98104 0.93583 0.51084 -0.17700
C 	C 	0.98191 0.96758 0.54559 0.30900
C 	C 	0.01384 0.98353 0.56329 0.29500
C 	C 	0.04489 0.96831 0.54410 -0.17600
C 	C 	0.04396 0.93467 0.51822 0.27500
F 	F 	0.07390 0.91830 0.50560 -0.47100
F 	F 	0.01197 0.88915 0.46337 -0.46100
F 	F 	0.01436 0.01499 0.59358 -0.34700
F 	F 	0.95197 0.98415 0.55742 -0.37400
C 	C 	0.78064 0.85550 0.46705 -0.04600
C 	C 	0.75580 0.83109 0.47888 0.00600
C 	C 	0.72170 0.83387 0.45317 -0.05300
C 	C 	0.71240 0.86079 0.41430 0.02100
C 	C 	0.73745 0.88534 0.40236 0.02700
C 	C 	0.77109 0.88299 0.43015 -0.02600
C 	C 	0.72830 0.91246 0.36421 -0.04600
C 	C 	0.69444 0.91546 0.33860 -0.01100
C 	C 	0.66932 0.89147 0.35082 -0.00800
C 	C 	0.67821 0.86416 0.38889 -0.04500
H 	H 	0.76312 0.80944 0.50626 0.04800
H 	H 	0.70272 0.81494 0.46290 0.04900
H 	H 	0.79038 0.90171 0.42061 0.07600
H 	H 	0.74733 0.93142 0.35491 0.09200
H 	H 	0.68761 0.93663 0.30953 0.05500
H 	H 	0.65866 0.84575 0.39864 0.04600
C 	C 	0.95283 0.01439 0.71821 0.28200
C 	C 	0.91772 0.02368 0.71581 -0.17700
C 	C 	0.90880 0.05729 0.73298 0.27000
C 	C 	0.93432 0.08049 0.75787 0.27100
C 	C 	0.96904 0.07013 0.76662 -0.18400
C 	C 	0.97831 0.03733 0.74417 0.26300
F 	F 	0.01170 0.02705 0.75060 -0.40400
F 	F 	0.96215 0.98277 0.69726 -0.34000
F 	F 	0.92521 0.11282 0.77478 -0.43700
F 	F 	0.87518 0.06706 0.72880 -0.42800
C 	C 	0.75562 0.03663 0.80922 0.28200
C 	C 	0.78718 0.02036 0.79745 -0.24000
C 	C 	0.81760 0.03273 0.83034 0.27700
C 	C 	0.81753 0.06372 0.86587 0.27600
C 	C 	0.78660 0.08176 0.87267 -0.22700
C 	C 	0.75532 0.06721 0.84721 0.28200
F 	F 	0.72502 0.08381 0.85532 -0.39200
F 	F 	0.72564 0.02401 0.78014 -0.39800
F 	F 	0.84792 0.07729 0.88960 -0.48500
F 	F 	0.84803 0.01658 0.82212 -0.49600
C 	C 	0.73197 0.94910 0.52821 -0.04300
C 	C 	0.72020 0.98250 0.52374 0.00800
C 	C 	0.68551 0.99029 0.53418 -0.05100
C 	C 	0.66242 0.96456 0.54781 0.03500
C 	C 	0.67291 0.93046 0.54052 0.01300
C 	C 	0.70762 0.92294 0.53043 -0.01700
C 	C 	0.64994 0.90464 0.55364 -0.03600
C 	C 	0.61948 0.91264 0.58456 -0.02200
C 	C 	0.61128 0.94652 0.60075 -0.00500
C 	C 	0.63113 0.97247 0.57710 -0.04400
H 	H 	0.73848 0.00284 0.51916 0.07400
H 	H 	0.67733 0.01648 0.53639 0.06700
H 	H 	0.71664 0.89724 0.53487 0.05400
H 	H 	0.65694 0.87833 0.54467 0.04400
H 	H 	0.60349 0.89245 0.60009 0.04100
H 	H 	0.62410 0.99870 0.58734 0.05700
C 	C 	0.86607 0.41217 0.20687 -0.04800
C 	C 	0.85619 0.44631 0.21875 0.10300
C 	C 	0.88119 0.47194 0.21837 -0.08400
C 	C 	0.91439 0.46458 0.19708 -0.00500
C 	C 	0.92231 0.43113 0.17443 0.07600
C 	C 	0.89859 0.40498 0.18201 -0.05100
N 	N 	0.82260 0.45467 0.22727 -0.19800
H 	H 	0.87462 0.49776 0.23349 0.05800
C 	C 	0.94154 0.49123 0.20496 -0.00300
N 	N 	0.95238 0.42408 0.14500 -0.19500
H 	H 	0.90577 0.37899 0.16974 0.05900
C 	C 	0.96960 0.48737 0.24995 -0.08600
C 	C 	0.99296 0.51407 0.26587 0.10700
C 	C 	0.98666 0.54591 0.23996 -0.04700
C 	C 	0.96003 0.54912 0.19177 -0.05200
C 	C 	0.93772 0.52186 0.17319 0.07100
H 	H 	0.97306 0.46362 0.27308 0.06200
N 	N 	0.02161 0.50889 0.30514 -0.20000
H 	H 	0.95590 0.57324 0.17027 0.05400
N 	N 	0.91242 0.52540 0.12570 -0.19500
H 	H 	0.02534 0.48577 0.32641 0.09200
H 	H 	0.04123 0.52707 0.31217 0.09600
H 	H 	0.90716 0.54912 0.10794 0.08600
H 	H 	0.89849 0.50455 0.10465 0.08900
H 	H 	0.95869 0.39913 0.13084 0.09800
H 	H 	0.96895 0.44335 0.13315 0.09500
H 	H 	0.80272 0.43711 0.21591 0.09200
H 	H 	0.81583 0.47964 0.24025 0.08700
C 	C 	0.90096 0.61716 0.93842 -0.04800
C 	C 	0.90891 0.58694 0.96925 0.10000
C 	C 	0.88358 0.56153 0.96940 -0.08600
C 	C 	0.85085 0.56573 0.93839 -0.00600
C 	C 	0.84171 0.59756 0.91481 0.07500
C 	C 	0.86692 0.62311 0.91555 -0.05200
N 	N 	0.94103 0.58176 0.99689 -0.20100
H 	H 	0.89023 0.53740 0.98884 0.05400
C 	C 	0.82945 0.53533 0.91949 -0.00500
N 	N 	0.80924 0.60335 0.88945 -0.19400
H 	H 	0.86058 0.64688 0.89430 0.05600
C 	C 	0.80118 0.52792 0.95643 -0.08700
C 	C 	0.77823 0.50140 0.93554 0.10100
C 	C 	0.78575 0.48005 0.88009 -0.04900
C 	C 	0.81564 0.48595 0.84653 -0.05100
C 	C 	0.83682 0.51407 0.86400 0.07300
H 	H 	0.79593 0.54400 0.99943 0.05500
N 	N 	0.74861 0.49750 0.96729 -0.20000
H 	H 	0.82182 0.46914 0.80507 0.05100
N 	N 	0.86383 0.52077 0.82673 -0.19400
H 	H 	0.74402 0.51259 0.00951 0.08800
H 	H 	0.72919 0.48070 0.94900 0.09500
H 	H 	0.86938 0.50449 0.78665 0.08800
H 	H 	0.87905 0.54247 0.83593 0.09300
H 	H 	0.80304 0.62660 0.87042 0.09200
H 	H 	0.78967 0.58522 0.88955 0.09200
H 	H 	0.95975 0.60088 0.00085 0.09700
H 	H 	0.94731 0.55863 0.01628 0.08900
C 	C 	0.00930 0.62306 0.43226 -0.04900
C 	C 	0.03746 0.63205 0.47691 0.11000
C 	C 	0.03119 0.64008 0.54290 -0.08600
C 	C 	0.99783 0.63716 0.56570 0.00300
C 	C 	0.96975 0.62794 0.52117 0.07600
C 	C 	0.97575 0.62147 0.45476 -0.04300
N 	N 	0.07055 0.63188 0.45744 -0.19900
H 	H 	0.05259 0.64725 0.57715 0.06500
C 	C 	0.99276 0.64279 0.63664 -0.00100
N 	N 	0.93708 0.62500 0.54186 -0.19300
H 	H 	0.95423 0.61473 0.42048 0.05700
C 	C 	0.98118 0.67446 0.66070 -0.08400
C 	C 	0.97066 0.67921 0.72509 0.11400
C 	C 	0.97443 0.65238 0.76762 -0.04900
C 	C 	0.98769 0.62123 0.74438 -0.05000
C 	C 	0.99661 0.61601 0.67910 0.07500
H 	H 	0.97843 0.69493 0.62806 0.07600
N 	N 	0.95566 0.70894 0.74469 -0.20000
H 	H 	0.99072 0.60080 0.77707 0.05300
N 	N 	0.00852 0.58521 0.65746 -0.19500
H 	H 	0.95439 0.72902 0.71389 0.11700
H 	H 	0.94358 0.71192 0.78894 0.11300
H 	H 	0.01095 0.56553 0.68906 0.08900
H 	H 	0.01564 0.58048 0.60943 0.09200
H 	H 	0.91655 0.61826 0.50852 0.09300
H 	H 	0.93169 0.62913 0.59098 0.09600
H 	H 	0.07658 0.62280 0.41063 0.10000
H 	H 	0.09095 0.63965 0.49030 0.09800
C 	C 	0.88972 0.03201 0.01704 0.28800
C 	C 	0.92511 0.02854 0.00558 -0.18300
C 	C 	0.94576 0.05761 0.00444 0.25600
C 	C 	0.93086 0.08972 0.01099 0.26900
C 	C 	0.89486 0.09311 0.01198 -0.19300
C 	C 	0.87468 0.06435 0.02104 0.28800
F 	F 	0.84009 0.06739 0.02774 -0.37500
F 	F 	0.86949 0.00415 0.01948 -0.36900
F 	F 	0.95111 0.11770 0.01159 -0.49300
F 	F 	0.97969 0.05473 0.99179 -0.48300
C 	C 	0.95141 0.90754 0.75882 0.27100
C 	C 	0.94250 0.89297 0.81644 -0.21200
C 	C 	0.91648 0.86800 0.81246 0.25800
C 	C 	0.89458 0.86407 0.75625 0.26200
C 	C 	0.89754 0.88647 0.70641 -0.21900
C 	C 	0.92903 0.90376 0.70304 0.28200
F 	F 	0.93574 0.92034 0.64917 -0.34900
F 	F 	0.98047 0.92667 0.75798 -0.39100
F 	F 	0.86711 0.84265 0.75493 -0.39700
F 	F 	0.91126 0.84905 0.86403 -0.39200
C 	C 	0.04633 0.03303 0.05905 0.28200
C 	C 	0.05650 0.00042 0.03743 -0.21000
C 	C 	0.08364 0.99682 0.99491 0.24800
C 	C 	0.09467 0.02461 0.96274 0.27700
C 	C 	0.07890 0.05631 0.97409 -0.23100
C 	C 	0.05763 0.06111 0.02749 0.27100
F 	F 	0.04764 0.09263 0.04817 -0.45200
F 	F 	0.02297 0.03719 0.10597 -0.36300
F 	F 	0.11946 0.02038 0.91855 -0.37900
F 	F 	0.09656 0.96567 0.97930 -0.38400
C 	C 	0.98106 0.71297 0.98363 0.00100
C 	C 	0.01548 0.72357 0.97982 -0.02600
C 	C 	0.02655 0.75466 0.00925 -0.03500
C 	C 	0.00348 0.77529 0.04395 0.01400
C 	C 	0.96963 0.76360 0.05251 0.04100
C 	C 	0.95864 0.73221 0.02286 -0.04600
C 	C 	0.94652 0.78458 0.08655 -0.03500
C 	C 	0.95557 0.81822 0.10476 0.02200
C 	C 	0.98789 0.83099 0.08938 -0.02900
C 	C 	0.01298 0.80837 0.06592 -0.01300
H 	H 	0.03332 0.70828 0.95176 0.05200
H 	H 	0.05278 0.76315 0.00345 0.05700
H 	H 	0.93218 0.72384 0.02685 0.06300
H 	H 	0.92090 0.77548 0.09570 0.07000
H 	H 	0.93660 0.83488 0.12657 0.07400
H 	H 	0.03883 0.81753 0.05853 0.06700
C 	C 	0.02178 0.99948 0.25091 0.27200
C 	C 	0.98710 0.99100 0.23356 -0.16900
C 	C 	0.97808 0.95679 0.21946 0.25100
C 	C 	0.00242 0.93122 0.22965 0.24700
C 	C 	0.03684 0.93955 0.24866 -0.19200
C 	C 	0.04663 0.97388 0.25783 0.26900
F 	F 	0.07996 0.98243 0.27523 -0.41600
F 	F 	0.03110 0.03233 0.26426 -0.39600
F 	F 	0.99201 0.89838 0.22524 -0.46800
F 	F 	0.94550 0.94833 0.19716 -0.37800
C 	C 	0.02376 0.81485 0.41596 0.26300
C 	C 	0.02118 0.80568 0.34854 -0.23600
C 	C 	0.99032 0.79055 0.32143 0.26500
C 	C 	0.96074 0.79146 0.35749 0.25500
C 	C 	0.96170 0.80811 0.41976 -0.23300
C 	C 	0.99389 0.81567 0.45177 0.28200
F 	F 	0.99573 0.82717 0.51552 -0.36600
F 	F 	0.05476 0.82348 0.44633 -0.45000
F 	F 	0.93015 0.78010 0.32889 -0.40400
F 	F 	0.98849 0.77665 0.25921 -0.40700
C 	C 	0.16298 0.94715 0.31684 0.28400
C 	C 	0.16853 0.91663 0.34731 -0.21400
C 	C 	0.18161 0.91758 0.41247 0.26300
C 	C 	0.18392 0.94832 0.44961 0.27700
C 	C 	0.17309 0.97838 0.42164 -0.21200
C 	C 	0.16562 0.97794 0.35374 0.25700
F 	F 	0.15967 0.00722 0.32396 -0.39500
F 	F 	0.15293 0.94692 0.25246 -0.36400
F 	F 	0.19563 0.94869 0.51313 -0.38100
F 	F 	0.19032 0.88844 0.44075 -0.38900
C 	C 	0.04066 0.65594 0.21684 -0.00300
C 	C 	0.01728 0.68068 0.19657 -0.01700
C 	C 	0.02915 0.70913 0.16736 -0.03000
C 	C 	0.06462 0.71327 0.15890 0.01800
C 	C 	0.08789 0.68712 0.17437 0.03100
C 	C 	0.07567 0.65830 0.20284 -0.04600
C 	C 	0.12345 0.69177 0.16734 -0.05300
C 	C 	0.13611 0.72363 0.15402 0.00900
C 	C 	0.11331 0.75094 0.14766 -0.05200
C 	C 	0.07755 0.74463 0.14288 -0.01800
H 	H 	0.99011 0.67859 0.20608 0.06200
H 	H 	0.01103 0.72883 0.15488 0.07600
H 	H 	0.09361 0.63882 0.21762 0.05100
H 	H 	0.14148 0.67148 0.17659 0.05300
H 	H 	0.16380 0.72789 0.15526 0.04700
H 	H 	0.05993 0.76553 0.13682 0.06300
