data_crystal

_cell_length_a 17.17819
_cell_length_b 16.84839
_cell_length_c 92.61600
_cell_angle_alpha 90.06319
_cell_angle_beta  90.02884
_cell_angle_gamma 119.75213

_symmetry_space_group_name_	'P 1'
_symmetry_space_group_name_H-M	'P 1'

loop_
_symmetry_equiv_pos_as_xyz
  x,y,z

loop_
_atom_site_label
_atom_site_type_symbol
_atom_site_fract_x
_atom_site_fract_y
_atom_site_fract_z
_atom_site_charge
O 	O 	0.01508 0.03741 0.01924 -0.71200
Ni	Ni	0.01348 0.92487 0.01712 1.11700
C 	C 	0.15602 0.24665 0.00498 0.31200
Ni	Ni	0.97947 0.08365 0.00348 1.11200
O 	O 	0.96172 0.17212 0.01634 -0.39000
O 	O 	0.85585 0.97909 0.00754 -0.38100
O 	O 	0.88489 0.85861 0.00738 -0.36700
C 	C 	0.83402 0.89505 0.00369 0.29700
O 	O 	0.01212 0.15925 0.03900 -0.38300
C 	C 	0.99950 0.95578 0.04879 0.29800
O 	O 	0.07633 0.03442 0.04720 -0.38900
Ni	Ni	0.10370 0.13005 0.03128 1.12000
O 	O 	0.15230 0.24548 0.01918 -0.38300
O 	O 	0.13594 0.95448 0.02660 -0.35600
O 	O 	0.19756 0.10605 0.02273 -0.39200
C 	C 	0.20504 0.03761 0.02765 0.29900
O 	O 	0.96407 0.89620 0.03801 -0.36900
C 	C 	0.95182 0.16379 0.03063 0.28700
H 	H 	0.96225 0.01731 0.02550 0.14700
C 	C 	0.38261 0.17150 0.05495 -0.07700
C 	C 	0.26336 0.98787 0.04846 0.06700
C 	C 	0.27468 0.05652 0.03865 -0.11800
C 	C 	0.34094 0.14740 0.04145 0.02300
H 	H 	0.21627 0.91674 0.04617 0.02900
H 	H 	0.35469 0.20055 0.03363 0.03000
C 	C 	0.85664 0.27474 0.05352 -0.06200
C 	C 	0.81131 0.09860 0.04446 0.01200
C 	C 	0.88149 0.17476 0.03764 -0.08500
C 	C 	0.89924 0.26272 0.04152 0.01700
H 	H 	0.79561 0.03023 0.04132 0.02400
H 	H 	0.95182 0.32207 0.03609 0.03300
H 	H 	0.10896 0.37344 0.99829 0.03200
C 	C 	0.87662 0.88682 0.06667 0.00800
C 	C 	0.96768 0.92222 0.06341 -0.06200
H 	H 	0.83449 0.90091 0.05964 0.03600
C 	C 	0.36184 0.10419 0.06551 0.04100
C 	C 	0.30699 0.01169 0.06183 -0.11200
H 	H 	0.29419 0.95866 0.06962 0.06700
H 	H 	0.42683 0.24298 0.05747 0.04900
C 	C 	0.79614 0.19870 0.06168 0.02100
C 	C 	0.76964 0.11037 0.05657 -0.06100
H 	H 	0.72151 0.05095 0.06255 0.04500
H 	H 	0.87491 0.34322 0.05701 0.04700
C 	C 	0.02194 0.90528 0.07279 -0.01300
H 	H 	0.02467 0.82755 0.09101 0.03700
H 	H 	0.09265 0.93335 0.07050 0.04500
C 	C 	0.98332 0.84482 0.08435 -0.02600
C 	C 	0.38837 0.13115 0.08074 0.01000
H 	H 	0.52706 0.22744 0.07578 0.04400
H 	H 	0.62820 0.12288 0.07287 0.04400
C 	C 	0.80801 0.72940 0.10939 -0.05600
C 	C 	0.84674 0.72284 0.09645 0.02800
C 	C 	0.84120 0.63966 0.09258 -0.05900
C 	C 	0.79857 0.56393 0.10170 0.01300
C 	C 	0.89046 0.80192 0.08668 0.01100
H 	H 	0.86981 0.63370 0.08249 0.04900
H 	H 	0.79491 0.50012 0.09860 0.03700
C 	C 	0.83808 0.82674 0.07826 -0.04900
H 	H 	0.76661 0.79533 0.08016 0.04900
C 	C 	0.47616 0.19956 0.08411 -0.05700
C 	C 	0.49821 0.23282 0.09822 0.01100
C 	C 	0.43388 0.19539 0.10920 -0.07900
C 	C 	0.34700 0.12520 0.10598 0.01400
C 	C 	0.32384 0.09414 0.09178 -0.05500
H 	H 	0.56594 0.28617 0.10068 0.02900
H 	H 	0.25543 0.04257 0.08931 0.04400
C 	C 	0.77029 0.21125 0.07639 0.01900
C 	C 	0.83674 0.26382 0.08661 -0.05800
C 	C 	0.81342 0.26662 0.10099 0.01200
C 	C 	0.72349 0.21546 0.10539 -0.07600
C 	C 	0.65709 0.16341 0.09511 0.00800
C 	C 	0.68018 0.16283 0.08067 -0.06000
H 	H 	0.90669 0.30077 0.08347 0.05100
H 	H 	0.86546 0.30764 0.10871 0.04300
H 	H 	0.58751 0.12307 0.09830 0.04200
H 	H 	0.81137 0.79319 0.11240 0.06100
H 	H 	0.29706 0.09568 0.11443 0.04400
C 	C 	0.72441 0.49364 0.12508 0.28700
C 	C 	0.45918 0.22655 0.12412 0.28400
C 	C 	0.69791 0.21874 0.12057 0.28200
O 	O 	0.66617 0.48913 0.13502 -0.35100
O 	O 	0.76279 0.44187 0.12580 -0.37800
O 	O 	0.76082 0.27008 0.13020 -0.37600
O 	O 	0.61391 0.16286 0.12467 -0.37700
O 	O 	0.49067 0.31403 0.12731 -0.36000
O 	O 	0.45506 0.16791 0.13407 -0.36000
H 	H 	0.62521 0.30915 0.13055 0.14800
C 	C 	0.76145 0.57079 0.11483 -0.07200
C 	C 	0.76566 0.65381 0.11856 0.01600
H 	H 	0.73799 0.66046 0.12870 0.06200
C 	C 	0.46038 0.21009 0.16542 0.32000
C 	C 	0.72327 0.47750 0.16517 0.32400
C 	C 	0.72317 0.21275 0.16215 0.32200
Ni	Ni	0.56840 0.37136 0.14569 1.12000
Ni	Ni	0.56649 0.17720 0.14372 1.12600
Ni	Ni	0.75393 0.36465 0.14312 1.12300
O 	O 	0.66046 0.15554 0.15322 -0.37200
O 	O 	0.45779 0.27120 0.15690 -0.35600
O 	O 	0.52092 0.18496 0.16357 -0.35900
O 	O 	0.63736 0.41768 0.16499 -0.35600
O 	O 	0.77714 0.47640 0.15513 -0.36400
O 	O 	0.75298 0.30122 0.16150 -0.37000
O 	O 	0.62770 0.30648 0.14113 -0.71400
C 	C 	0.80290 0.12425 0.16497 -0.03300
C 	C 	0.85123 0.09374 0.17324 0.12500
Br	Br	0.89666 0.02262 0.16409 -0.21000
H 	H 	0.79111 0.10654 0.15361 0.07400
Br	Br	0.33788 0.99499 0.16111 -0.22900
C 	C 	0.72634 0.62028 0.17380 0.13200
Br	Br	0.63268 0.60147 0.16054 -0.24900
C 	C 	0.77127 0.17894 0.17121 -0.08200
C 	C 	0.39059 0.16512 0.17650 -0.07700
C 	C 	0.32784 0.07085 0.17564 0.12600
C 	C 	0.75682 0.55662 0.17498 -0.07900
H 	H 	0.74221 0.74859 0.18122 0.07800
H 	H 	0.20528 0.96008 0.18416 0.07900
C 	C 	0.91459 0.08265 0.19709 0.31500
C 	C 	0.78792 0.20266 0.18593 0.12700
C 	C 	0.83678 0.17269 0.19416 -0.03500
C 	C 	0.86820 0.11783 0.18793 -0.08000
C 	C 	0.38030 0.21874 0.18709 -0.03100
C 	C 	0.25438 0.03211 0.18506 -0.03900
C 	C 	0.24194 0.08678 0.19518 -0.07800
C 	C 	0.30661 0.18017 0.19642 0.12900
H 	H 	0.42880 0.29101 0.18789 0.07600
C 	C 	0.76498 0.69932 0.18232 -0.03000
C 	C 	0.83288 0.71524 0.19224 -0.07600
C 	C 	0.86081 0.64973 0.19385 0.13200
C 	C 	0.82392 0.57191 0.18502 -0.02900
H 	H 	0.84672 0.52264 0.18610 0.08100
O 	O 	0.10435 0.07989 0.20246 -0.37100
C 	C 	0.15915 0.04730 0.20383 0.31400
O 	O 	0.14050 0.97906 0.21267 -0.35400
C 	C 	0.87088 0.79808 0.20131 0.32200
O 	O 	0.87888 0.99387 0.19869 -0.36200
O 	O 	0.95794 0.84821 0.20269 -0.34300
O 	O 	0.81693 0.81360 0.20943 -0.36300
O 	O 	0.97906 0.14005 0.20580 -0.35700
H 	H 	0.84851 0.19031 0.20552 0.07500
Br	Br	0.74012 0.27124 0.19525 -0.21000
Br	Br	0.29655 0.25601 0.21094 -0.25000
Br	Br	0.94408 0.66143 0.20870 -0.23200
Ni	Ni	0.01589 0.89927 0.22261 1.10700
Ni	Ni	0.04933 0.10665 0.21976 1.11300
Ni	Ni	0.84876 0.93724 0.21833 1.12400
O 	O 	0.84686 0.04759 0.22695 -0.38200
O 	O 	0.97081 0.98081 0.22347 -0.69700
H 	H 	0.05118 0.97683 0.27009 0.03200
O 	O 	0.08426 0.95649 0.24158 -0.36900
C 	C 	0.12479 0.04552 0.24417 0.27200
O 	O 	0.14313 0.10545 0.23350 -0.36000
C 	C 	0.16692 0.07775 0.25839 -0.07100
C 	C 	0.12092 0.02936 0.27079 -0.00000
C 	C 	0.16606 0.04457 0.28392 -0.05700
O 	O 	0.90122 0.80252 0.23372 -0.34400
H 	H 	0.96603 0.98542 0.23398 0.15300
C 	C 	0.85494 0.82654 0.24245 0.28300
C 	C 	0.90312 0.10423 0.23689 0.28500
O 	O 	0.99134 0.13851 0.23589 -0.37000
O 	O 	0.81304 0.86896 0.23733 -0.36800
C 	C 	0.25735 0.14581 0.25946 0.01000
H 	H 	0.29365 0.18364 0.24998 0.05400
C 	C 	0.85821 0.81529 0.25819 -0.07700
H 	H 	0.86492 0.69078 0.25663 0.04900
C 	C 	0.87548 0.28527 0.25630 -0.05500
C 	C 	0.90780 0.24345 0.24690 0.02000
C 	C 	0.86974 0.14804 0.24688 -0.07500
C 	C 	0.79763 0.09458 0.25606 0.01200
H 	H 	0.90580 0.35905 0.25632 0.05700
H 	H 	0.96214 0.28512 0.23959 0.04800
C 	C 	0.25757 0.10906 0.28484 0.01600
C 	C 	0.30254 0.16146 0.27265 -0.05500
H 	H 	0.37286 0.21280 0.27333 0.05000
C 	C 	0.86498 0.87239 0.28255 -0.05900
C 	C 	0.87003 0.73249 0.27873 -0.05600
C 	C 	0.86497 0.74166 0.26380 0.01600
C 	C 	0.85876 0.88092 0.26764 0.01300
H 	H 	0.87213 0.67364 0.28295 0.05300
H 	H 	0.85629 0.93957 0.26343 0.03500
C 	C 	0.76612 0.13643 0.26562 -0.05700
C 	C 	0.80560 0.23211 0.26591 0.02200
C 	C 	0.78020 0.27672 0.27722 0.02500
H 	H 	0.76694 0.02077 0.25594 0.03200
H 	H 	0.71251 0.09474 0.27305 0.04600
C 	C 	0.69004 0.25289 0.27908 -0.06200
H 	H 	0.63979 0.20848 0.27136 0.05100
H 	H 	0.13051 0.00440 0.29329 0.03900
C 	C 	0.30660 0.12077 0.29848 0.02100
C 	C 	0.38163 0.10849 0.29881 -0.06400
H 	H 	0.40092 0.08526 0.28925 0.04700
C 	C 	0.86951 0.79755 0.28820 0.02100
H 	H 	0.86547 0.92349 0.28972 0.04900
C 	C 	0.66402 0.28267 0.29131 0.01700
C 	C 	0.72796 0.33605 0.30178 -0.08800
C 	C 	0.81904 0.36683 0.29919 0.01900
C 	C 	0.84498 0.33679 0.28703 -0.06200
H 	H 	0.59375 0.26038 0.29299 0.03600
H 	H 	0.91493 0.35673 0.28559 0.05300
H 	H 	0.22086 0.15418 0.31109 0.04400
C 	C 	0.69922 0.34637 0.31627 0.30900
C 	C 	0.48408 0.22157 0.33393 0.29500
O 	O 	0.72316 0.52539 0.32903 -0.39300
O 	O 	0.73947 0.33586 0.32753 -0.37600
O 	O 	0.62578 0.35165 0.31784 -0.38400
C 	C 	0.28009 0.14693 0.31111 -0.06400
C 	C 	0.33267 0.16848 0.32357 0.01200
C 	C 	0.41331 0.16616 0.32341 -0.08500
C 	C 	0.43436 0.13033 0.31127 0.01500
H 	H 	0.49511 0.12583 0.31109 0.03600
C 	C 	0.86395 0.78167 0.30397 0.02400
C 	C 	0.92302 0.75838 0.31075 -0.06000
C 	C 	0.89909 0.71130 0.32389 0.02100
C 	C 	0.76692 0.72710 0.32495 0.01700
C 	C 	0.78978 0.77289 0.31171 -0.06100
H 	H 	0.98329 0.76950 0.30525 0.05400
H 	H 	0.93990 0.68437 0.32822 0.03700
H 	H 	0.74549 0.79406 0.30690 0.04800
H 	H 	0.86928 0.41021 0.30700 0.04200
C 	C 	0.76656 0.59764 0.33720 0.31200
Ni	Ni	0.60540 0.41863 0.33453 1.12000
O 	O 	0.54915 0.20150 0.33644 -0.36900
O 	O 	0.49162 0.30016 0.33807 -0.39100
H 	H 	0.31400 0.19309 0.33303 0.03300
C 	C 	0.81584 0.68678 0.33016 -0.08800
H 	H 	0.70465 0.71249 0.33013 0.03200
Ni	Ni	0.67408 0.28307 0.34688 1.11300
O 	O 	0.83688 0.47962 0.35449 -0.39000
O 	O 	0.56783 0.48989 0.34797 -0.38400
O 	O 	0.75845 0.59195 0.35136 -0.38200
O 	O 	0.65206 0.38094 0.34996 -0.71200
H 	H 	0.59814 0.34994 0.35604 0.15600
C 	C 	0.03711 0.56667 0.38523 -0.09400
H 	H 	0.08327 0.63882 0.38694 0.05200
C 	C 	0.64759 0.29633 0.37875 0.28400
C 	C 	0.85742 0.41858 0.35879 0.31500
C 	C 	0.55598 0.47524 0.36214 0.28900
Ni	Ni	0.72762 0.47723 0.36276 1.12100
O 	O 	0.62376 0.23993 0.36749 -0.37000
O 	O 	0.71504 0.38233 0.37792 -0.37500
O 	O 	0.62093 0.48083 0.37057 -0.38300
O 	O 	0.79991 0.33147 0.35662 -0.36800
C 	C 	0.43584 0.56396 0.38364 -0.06200
C 	C 	0.47572 0.55270 0.37122 0.01600
C 	C 	0.47779 0.47132 0.36914 -0.08300
C 	C 	0.42406 0.39565 0.37789 0.01300
H 	H 	0.44213 0.62997 0.38593 0.04700
H 	H 	0.51366 0.61053 0.36415 0.03500
H 	H 	0.42165 0.33100 0.37598 0.02800
C 	C 	0.99122 0.53702 0.37211 0.06100
C 	C 	0.92646 0.44450 0.37014 -0.10500
C 	C 	0.91655 0.38062 0.38078 0.02400
H 	H 	0.00214 0.58671 0.36380 0.00800
H 	H 	0.86901 0.30864 0.37930 0.03900
H 	H 	0.98971 0.53124 0.44565 0.04900
C 	C 	0.05746 0.53633 0.41091 0.02500
C 	C 	0.03485 0.54541 0.43662 0.01300
C 	C 	0.15001 0.57632 0.41325 -0.06500
H 	H 	0.19478 0.58738 0.40428 0.04700
C 	C 	0.12672 0.58032 0.43904 -0.08600
C 	C 	0.18454 0.59867 0.42725 0.01700
C 	C 	0.16002 0.58225 0.45368 0.30700
O 	O 	0.19693 0.53212 0.45654 -0.38500
C 	C 	0.38542 0.40714 0.39043 -0.06000
C 	C 	0.39856 0.49388 0.39400 0.02000
C 	C 	0.39523 0.51698 0.40929 0.02100
H 	H 	0.35333 0.35119 0.39802 0.04800
H 	H 	0.25556 0.41589 0.41224 0.04600
H 	H 	0.53572 0.61962 0.41011 0.05200
C 	C 	0.01981 0.50389 0.39639 0.01100
C 	C 	0.96240 0.41036 0.39389 -0.05100
H 	H 	0.95071 0.36107 0.40231 0.04900
H 	H 	0.43213 0.95494 0.41089 0.04600
C 	C 	0.49064 0.14975 0.40771 -0.06200
C 	C 	0.52426 0.21011 0.39606 0.01500
C 	C 	0.61632 0.25572 0.39302 -0.08000
C 	C 	0.67535 0.24640 0.40242 0.01800
H 	H 	0.41905 0.11235 0.40968 0.04800
H 	H 	0.47830 0.21795 0.38898 0.02800
H 	H 	0.74671 0.28213 0.40024 0.03500
C 	C 	0.31641 0.46760 0.41739 -0.06000
C 	C 	0.31615 0.48492 0.43218 0.01400
C 	C 	0.39422 0.55310 0.43891 -0.07800
C 	C 	0.47325 0.60107 0.43084 0.01800
C 	C 	0.47384 0.58296 0.41615 -0.05900
H 	H 	0.25476 0.44714 0.43828 0.04300
H 	H 	0.53419 0.65306 0.43593 0.04300
C 	C 	0.00026 0.52340 0.42260 -0.07600
H 	H 	0.92880 0.49386 0.42086 0.06100
H 	H 	0.25586 0.62692 0.42900 0.03500
C 	C 	0.51219 0.05779 0.42676 0.01200
C 	C 	0.45224 0.96835 0.42212 -0.05000
C 	C 	0.41858 0.89598 0.43195 0.01000
C 	C 	0.54884 0.13383 0.41630 0.02600
H 	H 	0.37206 0.82730 0.42827 0.03700
C 	C 	0.64171 0.18514 0.41396 -0.06200
H 	H 	0.68739 0.17436 0.42065 0.05100
C 	C 	0.40721 0.83667 0.45689 0.30400
C 	C 	0.39067 0.58258 0.45375 0.30300
O 	O 	0.43835 0.66975 0.45708 -0.38300
O 	O 	0.32019 0.78246 0.45726 -0.38000
C 	C 	0.53888 0.07396 0.44129 -0.05000
C 	C 	0.44537 0.91216 0.44646 -0.07100
C 	C 	0.50589 0.00143 0.45108 0.00700
H 	H 	0.58486 0.14271 0.44499 0.05500
O 	O 	0.13776 0.51114 0.48627 -0.36400
O 	O 	0.14724 0.62828 0.46393 -0.37300
H 	H 	0.95799 0.44512 0.49052 0.07500
Ni	Ni	0.25341 0.72367 0.47635 1.11500
Ni	Ni	0.43868 0.71753 0.47690 1.12700
Ni	Ni	0.25133 0.52951 0.47581 1.12400
O 	O 	0.45803 0.83469 0.46733 -0.36300
O 	O 	0.34500 0.52153 0.46376 -0.36700
O 	O 	0.31221 0.65722 0.47942 -0.72400
H 	H 	0.52603 0.01485 0.46231 0.05900
Br	Br	0.37311 0.36256 0.48668 -0.22000
O 	O 	0.45291 0.61701 0.48663 -0.36300
H 	H 	0.00364 0.41464 0.66547 0.03300
O 	O 	0.02273 0.83373 0.82519 -0.35000
Br	Br	0.96853 0.74871 0.85818 -0.23800
H 	H 	0.00214 0.22463 0.72730 0.05000
C 	C 	0.01714 0.46685 0.65748 0.03700
H 	H 	0.01954 0.98551 0.79809 0.15800
O 	O 	0.01662 0.98910 0.80866 -0.68200
H 	H 	0.04998 0.84996 0.76537 0.03900
H 	H 	0.08426 0.60645 0.74604 0.05300
C 	C 	0.07188 0.55688 0.52098 0.13200
H 	H 	0.04784 0.30899 0.70427 0.03500
C 	C 	0.05743 0.52732 0.50648 -0.07600
C 	C 	0.09535 0.82620 0.76874 0.01500
O 	O 	0.02586 0.12002 0.82993 -0.35500
C 	C 	0.05179 0.60015 0.63657 -0.04100
C 	C 	0.08946 0.87485 0.79385 0.28800
C 	C 	0.06053 0.23177 0.72167 -0.06200
H 	H 	0.10454 0.78031 0.74748 0.05100
C 	C 	0.12589 0.78636 0.75863 -0.05600
C 	C 	0.12381 0.83588 0.78314 -0.07300
C 	C 	0.08556 0.27821 0.70847 0.01900
H 	H 	0.06591 0.65197 0.62848 0.05000
O 	O 	0.07519 0.16642 0.79857 -0.35900
C 	C 	0.08546 0.89230 0.83399 0.33300
H 	H 	0.13719 0.55556 0.72514 0.03900
C 	C 	0.08583 0.55746 0.65979 -0.09400
H 	H 	0.11103 0.05716 0.74173 0.04100
H 	H 	0.12161 0.03737 0.76787 0.02400
C 	C 	0.11210 0.10737 0.74917 -0.06300
C 	C 	0.15544 0.63894 0.74380 -0.06200
C 	C 	0.11851 0.09640 0.76400 0.01200
C 	C 	0.12304 0.14651 0.78946 0.28300
Br	Br	0.15261 0.12728 0.86312 -0.20800
C 	C 	0.10897 0.18389 0.74394 0.02000
C 	C 	0.13160 0.56698 0.49592 0.30300
C 	C 	0.11609 0.20303 0.72823 0.02100
C 	C 	0.09989 0.62468 0.64951 0.01800
Br	Br	0.19104 0.63417 0.52826 -0.22300
C 	C 	0.10846 0.24733 0.75379 -0.05800
H 	H 	0.10739 0.30742 0.74991 0.05100
C 	C 	0.18546 0.60968 0.73203 0.02100
C 	C 	0.11860 0.16007 0.77383 -0.08200
C 	C 	0.11230 0.23490 0.76866 0.01600
H 	H 	0.11233 0.28448 0.77612 0.04300
C 	C 	0.18419 0.75470 0.76290 0.02200
Ni	Ni	0.14033 0.03827 0.81302 1.10900
O 	O 	0.16937 0.10765 0.79413 -0.37900
O 	O 	0.14614 0.93165 0.80375 -0.37100
C 	C 	0.18284 0.80516 0.78738 0.01900
C 	C 	0.21256 0.76435 0.77732 -0.05500
H 	H 	0.20445 0.81152 0.79853 0.05200
C 	C 	0.11312 0.16842 0.83142 0.32500
O 	O 	0.11728 0.98068 0.83258 -0.35300
C 	C 	0.13549 0.86012 0.84279 -0.08100
C 	C 	0.09101 0.79004 0.85301 0.15400
H 	H 	0.10325 0.69949 0.86804 0.07000
C 	C 	0.16636 0.29653 0.70189 -0.08900
C 	C 	0.15260 0.57812 0.67138 0.31100
C 	C 	0.21679 0.71321 0.75219 0.02500
C 	C 	0.13720 0.75192 0.85993 -0.03500
C 	C 	0.17111 0.24128 0.85550 0.12500
O 	O 	0.16510 0.51234 0.67608 -0.39100
O 	O 	0.16651 0.15910 0.82226 -0.37200
C 	C 	0.15082 0.24849 0.84101 -0.08100
H 	H 	0.15138 0.69514 0.65119 0.04300
O 	O 	0.17434 0.65720 0.49414 -0.35500
H 	H 	0.22183 0.31253 0.87566 0.06700
C 	C 	0.18758 0.20681 0.72031 -0.06200
C 	C 	0.20609 0.31824 0.86450 -0.03200
C 	C 	0.98760 0.50862 0.63387 0.00400
H 	H 	0.25727 0.73988 0.78073 0.05800
O 	O 	0.20766 0.49080 0.87832 -0.36600
C 	C 	0.16602 0.33289 0.83566 -0.03100
H 	H 	0.15030 0.33860 0.82450 0.06800
C 	C 	0.21901 0.38406 0.69451 0.31200
C 	C 	0.21126 0.25170 0.70699 0.01500
C 	C 	0.22614 0.89165 0.83968 -0.02500
C 	C 	0.22142 0.40267 0.85914 -0.08100
O 	O 	0.21553 0.66345 0.67349 -0.36600
C 	C 	0.22805 0.78393 0.85690 -0.07300
C 	C 	0.20114 0.40989 0.84465 0.12500
Ni	Ni	0.96584 0.06535 0.81020 1.08900
Br	Br	0.61860 0.97662 0.49125 -0.22500
Br	Br	0.77804 0.35718 0.50404 -0.22500
C 	C 	0.56699 0.14423 0.53609 0.31000
C 	C 	0.81309 0.42496 0.57828 0.30600
C 	C 	0.57077 0.15422 0.57609 0.31200
C 	C 	0.83761 0.42597 0.53625 0.30100
C 	C 	0.57243 0.39958 0.57752 0.30400
C 	C 	0.56214 0.41989 0.53527 0.30600
Ni	Ni	0.72265 0.27219 0.55677 1.11400
Ni	Ni	0.71044 0.45805 0.55540 1.12600
Ni	Ni	0.52983 0.26273 0.55510 1.12700
O 	O 	0.63148 0.15376 0.54524 -0.36000
O 	O 	0.52838 0.19575 0.53691 -0.36100
O 	O 	0.61252 0.45947 0.56714 -0.36700
O 	O 	0.82664 0.37517 0.56875 -0.37400
O 	O 	0.76658 0.46477 0.57487 -0.38400
O 	O 	0.50720 0.35538 0.54445 -0.36200
O 	O 	0.65603 0.21585 0.57595 -0.38700
O 	O 	0.51778 0.15085 0.56558 -0.36600
O 	O 	0.65066 0.46574 0.53716 -0.36200
O 	O 	0.79998 0.33673 0.53874 -0.35700
O 	O 	0.82679 0.48198 0.54524 -0.36300
O 	O 	0.52407 0.31227 0.57448 -0.37900
O 	O 	0.65675 0.33010 0.55271 -0.72400
H 	H 	0.65976 0.33031 0.54208 0.16200
C 	C 	0.41204 0.83747 0.49733 0.30700
C 	C 	0.39584 0.55460 0.49586 0.30500
O 	O 	0.30751 0.51163 0.49372 -0.36100
O 	O 	0.35027 0.83585 0.48835 -0.35600
O 	O 	0.44655 0.78263 0.49566 -0.35900
H 	H 	0.30966 0.65439 0.49005 0.16100
C 	C 	0.52364 0.74829 0.69707 0.29500
C 	C 	0.30535 0.64109 0.71434 0.31000
C 	C 	0.36291 0.68226 0.65181 0.28400
C 	C 	0.43086 0.48496 0.66998 0.28900
Ni	Ni	0.33851 0.70196 0.68361 1.11400
Ni	Ni	0.26948 0.50252 0.66847 1.12100
Ni	Ni	0.38881 0.55473 0.69696 1.12000
O 	O 	0.46422 0.77566 0.69417 -0.36700
O 	O 	0.50868 0.66614 0.69334 -0.39100
O 	O 	0.22760 0.38708 0.68035 -0.38300
O 	O 	0.41737 0.47365 0.68417 -0.38500
O 	O 	0.27004 0.65692 0.70294 -0.37400
O 	O 	0.37535 0.62962 0.71309 -0.38500
O 	O 	0.37033 0.48627 0.66124 -0.38300
O 	O 	0.39206 0.73893 0.66305 -0.36900
O 	O 	0.29177 0.59828 0.65280 -0.37400
O 	O 	0.26599 0.45680 0.70241 -0.39500
O 	O 	0.34976 0.59699 0.68110 -0.71300
H 	H 	0.40418 0.62288 0.67511 0.15700
C 	C 	0.71562 0.80272 0.72183 -0.06200
C 	C 	0.59584 0.80072 0.70759 -0.08300
C 	C 	0.66689 0.78233 0.70896 0.01100
H 	H 	0.68011 0.74640 0.70046 0.03400
H 	H 	0.76608 0.78256 0.72314 0.04300
H 	H 	0.27155 0.26183 0.70162 0.03000
H 	H 	0.22922 0.18185 0.72497 0.04400
C 	C 	0.58278 0.51516 0.61286 -0.05800
C 	C 	0.60344 0.46357 0.62248 0.02000
C 	C 	0.62531 0.39951 0.61697 -0.06100
C 	C 	0.61796 0.38079 0.60218 0.01700
C 	C 	0.59166 0.42818 0.59270 -0.08100
C 	C 	0.57761 0.49791 0.59802 0.01700
C 	C 	0.58694 0.46545 0.63813 0.02000
H 	H 	0.64392 0.36120 0.62421 0.04500
H 	H 	0.63142 0.32850 0.59810 0.03800
H 	H 	0.55845 0.53567 0.59076 0.04700
H 	H 	0.56606 0.56511 0.61696 0.05100
C 	C 	0.61963 0.54942 0.64533 -0.06000
C 	C 	0.57787 0.55435 0.65800 0.01000
C 	C 	0.50313 0.47558 0.66338 -0.08200
C 	C 	0.48311 0.39005 0.65783 0.01600
C 	C 	0.52394 0.38488 0.64509 -0.06000
H 	H 	0.67170 0.61168 0.64047 0.04500
H 	H 	0.59669 0.62063 0.66261 0.02900
H 	H 	0.42812 0.32827 0.66233 0.03300
H 	H 	0.50056 0.31905 0.63997 0.04700
C 	C 	0.88814 0.52263 0.61577 -0.06400
C 	C 	0.93918 0.48270 0.61997 0.02100
C 	C 	0.94824 0.42237 0.61054 -0.06400
C 	C 	0.90742 0.40325 0.59691 0.01500
C 	C 	0.85796 0.44513 0.59256 -0.08400
C 	C 	0.84873 0.50497 0.60213 0.01500
H 	H 	0.98775 0.39127 0.61370 0.04500
H 	H 	0.91458 0.35633 0.58977 0.03700
H 	H 	0.81073 0.53778 0.59902 0.04400
H 	H 	0.87998 0.56847 0.62303 0.04600
C 	C 	0.96871 0.44249 0.64454 -0.08700
H 	H 	0.91743 0.37207 0.64272 0.04600
C 	C 	0.36094 0.78919 0.61662 -0.05500
C 	C 	0.45315 0.84867 0.61468 0.01500
C 	C 	0.51493 0.83841 0.62326 -0.05400
C 	C 	0.48474 0.77564 0.63462 0.01200
C 	C 	0.39264 0.72254 0.63745 -0.07600
C 	C 	0.33082 0.72576 0.62789 0.01500
C 	C 	0.48455 0.92695 0.60472 0.04900
H 	H 	0.58628 0.88208 0.62157 0.04900
H 	H 	0.53302 0.77226 0.64175 0.03200
H 	H 	0.25951 0.68385 0.62981 0.03900
H 	H 	0.31263 0.79533 0.60988 0.05300
C 	C 	0.46167 0.91229 0.59004 -0.07200
C 	C 	0.48882 0.98661 0.58073 0.04600
C 	C 	0.53939 0.07633 0.58601 -0.10600
C 	C 	0.56278 0.09103 0.60067 0.03100
C 	C 	0.53506 0.01669 0.61001 -0.08900
H 	H 	0.42310 0.84336 0.58584 0.06300
H 	H 	0.47195 0.97447 0.56937 0.05700
H 	H 	0.60189 0.15997 0.60484 0.02700
H 	H 	0.55224 0.02877 0.62136 0.04800
C 	C 	0.47785 0.56820 0.51860 -0.03600
C 	C 	0.43236 0.51645 0.50642 -0.07200
C 	C 	0.43179 0.43395 0.50353 0.13000
C 	C 	0.47624 0.40406 0.51285 -0.03500
C 	C 	0.52232 0.45619 0.52497 -0.07200
C 	C 	0.52233 0.53835 0.52791 0.13000
Br	Br	0.58056 0.60957 0.54480 -0.22200
H 	H 	0.47928 0.63213 0.52079 0.07400
H 	H 	0.47493 0.34020 0.51065 0.07400
C 	C 	0.58080 0.05646 0.51574 -0.04100
C 	C 	0.52745 0.06460 0.52641 -0.08600
C 	C 	0.43720 0.99524 0.52797 0.14700
C 	C 	0.40102 0.92001 0.51864 -0.03900
C 	C 	0.45390 0.91260 0.50781 -0.07300
C 	C 	0.54447 0.98138 0.50636 0.13600
H 	H 	0.65028 0.10935 0.51456 0.07700
H 	H 	0.33140 0.86738 0.51977 0.08200
Br	Br	0.36264 0.00038 0.54297 -0.24300
C 	C 	0.96986 0.46685 0.50171 -0.03200
C 	C 	0.99900 0.52698 0.53044 -0.04700
C 	C 	0.91149 0.46640 0.52567 -0.07000
C 	C 	0.89707 0.43656 0.51120 0.12200
H 	H 	0.01079 0.54866 0.54163 0.08300
C 	C 	0.69565 0.84430 0.73327 0.01900
C 	C 	0.63246 0.87303 0.73122 -0.06100
C 	C 	0.58315 0.85189 0.71839 0.01500
C 	C 	0.73735 0.85343 0.74757 0.02300
H 	H 	0.61900 0.90843 0.73978 0.04900
H 	H 	0.53083 0.86961 0.71731 0.03800
C 	C 	0.83098 0.90013 0.74897 -0.06400
H 	H 	0.87327 0.92842 0.73955 0.04500
C 	C 	0.33910 0.72225 0.73785 0.01900
C 	C 	0.27706 0.65386 0.72865 -0.08900
H 	H 	0.41011 0.75575 0.73546 0.03400
C 	C 	0.68346 0.81595 0.75988 -0.06300
C 	C 	0.81644 0.88099 0.77498 -0.09300
C 	C 	0.87023 0.91289 0.76260 0.01900
H 	H 	0.61109 0.77778 0.75887 0.05100
H 	H 	0.94244 0.95062 0.76361 0.02200
C 	C 	0.30905 0.75244 0.74952 -0.06300
H 	H 	0.35711 0.80893 0.75607 0.05200
C 	C 	0.85694 0.91614 0.78915 0.31400
O 	O 	0.00106 0.83651 0.79539 -0.36600
O 	O 	0.89398 0.00509 0.79157 -0.41100
O 	O 	0.84335 0.85808 0.79988 -0.38400
Br	Br	0.21985 0.52394 0.83702 -0.19500
H 	H 	0.66347 0.83023 0.82283 0.07200
Br	Br	0.48146 0.71516 0.83489 -0.18500
C 	C 	0.72294 0.83000 0.77354 0.02300
H 	H 	0.68079 0.80484 0.78304 0.04100
Ni	Ni	0.94405 0.86210 0.81240 1.10900
C 	C 	0.83758 0.91693 0.83047 0.32000
O 	O 	0.84590 0.97819 0.82086 -0.35400
O 	O 	0.89326 0.88490 0.83063 -0.36500
C 	C 	0.25973 0.48291 0.86870 0.32600
C 	C 	0.53284 0.73947 0.86824 0.32100
C 	C 	0.27877 0.75388 0.86597 0.32800
Ni	Ni	0.41090 0.59078 0.88905 1.11400
Ni	Ni	0.23230 0.61141 0.88745 1.12300
Ni	Ni	0.42594 0.79108 0.88680 1.12400
O 	O 	0.53056 0.79982 0.89879 -0.37100
O 	O 	0.24805 0.66586 0.86772 -0.36800
O 	O 	0.34715 0.53321 0.86967 -0.36000
O 	O 	0.52770 0.67916 0.87777 -0.36200
O 	O 	0.47476 0.76851 0.86832 -0.35700
O 	O 	0.22490 0.71696 0.89679 -0.37600
O 	O 	0.34201 0.81442 0.87449 -0.36200
O 	O 	0.35732 0.66434 0.89098 -0.71200
C 	C 	0.27232 0.85358 0.84660 0.12800
Br	Br	0.39474 0.89487 0.84140 -0.19800
H 	H 	0.26008 0.94406 0.83157 0.06300
C 	C 	0.69732 0.82923 0.86430 -0.03300
C 	C 	0.61050 0.78285 0.85847 -0.08100
C 	C 	0.59844 0.78357 0.84342 0.12700
C 	C 	0.67295 0.83122 0.83442 -0.03300
C 	C 	0.75982 0.87701 0.84024 -0.08000
C 	C 	0.77181 0.87663 0.85528 0.12700
Br	Br	0.88897 0.94402 0.86379 -0.18700
H 	H 	0.70683 0.83005 0.87588 0.07200
H 	H 	0.15399 0.68563 0.92608 0.03600
C 	C 	0.18017 0.75887 0.92630 0.01000
O 	O 	0.21033 0.54470 0.90652 -0.37100
C 	C 	0.25855 0.50684 0.91070 0.28400
C 	C 	0.28327 0.77672 0.90622 0.28700
O 	O 	0.48621 0.65437 0.90727 -0.36900
O 	O 	0.37137 0.81715 0.90407 -0.38100
O 	O 	0.30578 0.48854 0.90123 -0.36600
H 	H 	0.35669 0.66899 0.90155 0.14700
C 	C 	0.28272 0.91086 0.91727 0.00800
H 	H 	0.33538 0.95550 0.90992 0.05100
C 	C 	0.52057 0.74317 0.90955 0.28600
C 	C 	0.55972 0.78008 0.92372 -0.08000
C 	C 	0.65308 0.82790 0.92548 0.01800
H 	H 	0.69663 0.85004 0.91612 0.04300
C 	C 	0.26214 0.48821 0.92615 -0.08100
H 	H 	0.26271 0.36166 0.92261 0.04000
C 	C 	0.24665 0.94798 0.92688 -0.02400
C 	C 	0.24970 0.81618 0.91697 -0.07000
H 	H 	0.27258 0.02117 0.92704 0.02700
H 	H 	0.00732 0.85535 0.94097 0.05600
C 	C 	0.02320 0.92585 0.96108 0.02300
C 	C 	0.05461 0.90092 0.94895 -0.05200
H 	H 	0.09256 0.75145 0.94345 0.04900
C 	C 	0.14476 0.79605 0.93603 -0.05400
C 	C 	0.14647 0.93075 0.94754 0.00800
C 	C 	0.17797 0.89084 0.93638 0.02100
C 	C 	0.20725 0.99201 0.95769 0.00400
H 	H 	0.95175 0.89829 0.96250 0.02600
C 	C 	0.63443 0.80835 0.95148 0.02100
H 	H 	0.74446 0.74456 0.96002 0.04600
C 	C 	0.54113 0.76528 0.94973 -0.05900
C 	C 	0.50409 0.75215 0.93591 0.01500
C 	C 	0.69040 0.84235 0.93932 -0.05900
H 	H 	0.43199 0.71689 0.93464 0.02800
H 	H 	0.76263 0.87769 0.94058 0.05000
C 	C 	0.26965 0.45422 0.95571 0.02000
C 	C 	0.26749 0.39246 0.94525 -0.05900
C 	C 	0.26480 0.40997 0.93055 0.01500
C 	C 	0.26481 0.55015 0.93658 0.01200
C 	C 	0.27036 0.53419 0.95125 -0.06100
H 	H 	0.26561 0.32983 0.94853 0.04800
H 	H 	0.26364 0.61128 0.93329 0.03000
H 	H 	0.27840 0.01649 0.95660 0.01700
C 	C 	0.05032 0.98501 0.98623 0.33400
C 	C 	0.08348 0.98057 0.97186 -0.05900
O 	O 	0.98417 0.00256 0.98755 -0.41800
O 	O 	0.07807 0.95768 0.99735 -0.37300
O 	O 	0.10400 0.17384 0.99742 -0.39700
H 	H 	0.15265 0.45712 0.97527 0.04700
C 	C 	0.16762 0.38133 0.99264 0.01600
C 	C 	0.19210 0.42840 0.97951 -0.06200
C 	C 	0.17588 0.01713 0.96976 -0.04500
C 	C 	0.20978 0.33274 0.99726 -0.09000
C 	C 	0.67347 0.81567 0.96597 0.02100
C 	C 	0.73189 0.78138 0.96845 -0.06300
H 	H 	0.49728 0.73965 0.95903 0.04700
C 	C 	0.26152 0.43021 0.97125 0.02200
H 	H 	0.37074 0.40099 0.97134 0.04700
H 	H 	0.27342 0.58308 0.95916 0.04500
H 	H 	0.22304 0.06095 0.97791 0.04800
C 	C 	0.65486 0.85973 0.97719 -0.06100
C 	C 	0.77744 0.79825 0.98160 0.01700
H 	H 	0.82652 0.77634 0.98303 0.03500
H 	H 	0.60824 0.88459 0.97551 0.04900
C 	C 	0.31403 0.39590 0.97725 -0.06200
C 	C 	0.28811 0.34721 0.99024 0.01800
H 	H 	0.32336 0.31275 0.99400 0.03100
C 	C 	0.76541 0.85017 0.99235 -0.08300
C 	C 	0.69975 0.87584 0.99039 0.01300
H 	H 	0.68757 0.91330 0.99876 0.03900
