data_crystal

_cell_length_a 34.37054
_cell_length_b 33.79871
_cell_length_c 23.65999
_cell_angle_alpha 92.46242
_cell_angle_beta  87.55052
_cell_angle_gamma 90.22744

_symmetry_space_group_name_	'P 1'
_symmetry_space_group_name_H-M	'P 1'

loop_
_symmetry_equiv_pos_as_xyz
  x,y,z

loop_
_atom_site_label
_atom_site_type_symbol
_atom_site_fract_x
_atom_site_fract_y
_atom_site_fract_z
_atom_site_charge
Cd	Cd	0.92060 0.77075 0.09115 1.25000
Cd	Cd	0.86813 0.80088 0.21765 1.20300
O 	O 	0.95802 0.70961 0.09600 -0.29800
O 	O 	0.95807 0.74224 0.01811 -0.32300
C 	C 	0.97264 0.71326 0.04505 0.26200
O 	O 	0.88316 0.82046 0.06481 -0.34500
O 	O 	0.87611 0.84838 0.15473 -0.38300
C 	C 	0.86570 0.84582 0.10175 0.33000
C 	C 	0.85023 0.73121 0.12143 0.34700
O 	O 	0.93414 0.79128 0.19771 -0.42200
O 	O 	0.86091 0.72131 0.06901 -0.27400
O 	O 	0.87517 0.75204 0.14943 -0.52800
C 	C 	0.95913 0.81706 0.17830 0.33400
O 	O 	0.96536 0.81601 0.12358 -0.32300
Cd	Cd	0.26071 0.94428 0.08494 1.24800
Cd	Cd	0.27105 0.99699 0.96068 1.17800
O 	O 	0.28443 0.87578 0.08208 -0.29200
O 	O 	0.25860 0.90378 0.15968 -0.32400
C 	C 	0.27059 0.87109 0.13330 0.26900
O 	O 	0.24398 0.00678 0.11007 -0.35500
O 	O 	0.22556 0.02421 0.02185 -0.39700
C 	C 	0.22562 0.03080 0.07733 0.34900
C 	C 	0.33514 0.97430 0.05271 0.33800
O 	O 	0.23693 0.93885 0.97945 -0.44800
O 	O 	0.33450 0.96480 0.10565 -0.27300
O 	O 	0.30449 0.96466 0.02519 -0.52100
C 	C 	0.20162 0.93592 0.00187 0.37200
O 	O 	0.19876 0.93336 0.05653 -0.33700
C 	C 	0.12393 0.72099 0.90341 0.12700
N 	N 	0.13506 0.72535 0.84818 -0.12600
C 	C 	0.11306 0.70946 0.80650 0.13500
N 	N 	0.08062 0.68829 0.82014 -0.14200
C 	C 	0.06945 0.68389 0.87511 0.13400
N 	N 	0.09097 0.70043 0.91681 -0.14000
C 	C 	0.09085 0.64348 0.30670 0.13300
N 	N 	0.05491 0.62671 0.31125 -0.13700
C 	C 	0.03699 0.62284 0.36293 0.13800
N 	N 	0.05426 0.63738 0.40996 -0.14000
C 	C 	0.08985 0.65485 0.40564 0.13600
N 	N 	0.10852 0.65720 0.35401 -0.13800
Cd	Cd	0.88802 0.92514 0.75331 1.24700
Cd	Cd	0.91361 0.97829 0.88298 1.21000
O 	O 	0.84441 0.86766 0.76326 -0.30100
O 	O 	0.85921 0.89171 0.68022 -0.31600
C 	C 	0.84066 0.86499 0.70884 0.27400
O 	O 	0.92541 0.97522 0.72289 -0.32800
O 	O 	0.92616 0.01284 0.80535 -0.35800
C 	C 	0.94416 0.99883 0.75876 0.31400
C 	C 	0.83586 0.98057 0.81143 0.33900
O 	O 	0.92765 0.91466 0.84357 -0.42200
O 	O 	0.82508 0.97127 0.76030 -0.26200
O 	O 	0.86328 0.95867 0.82948 -0.50500
C 	C 	0.95570 0.90124 0.80903 0.32400
O 	O 	0.94611 0.89237 0.75743 -0.32300
Cd	Cd	0.67520 0.83393 0.54652 1.24300
Cd	Cd	0.68983 0.89349 0.42749 1.20300
O 	O 	0.61637 0.79258 0.55119 -0.30200
O 	O 	0.66232 0.78714 0.61217 -0.34400
C 	C 	0.62846 0.77558 0.59533 0.27500
O 	O 	0.73562 0.85741 0.55512 -0.37000
O 	O 	0.72886 0.91048 0.49907 -0.38600
C 	C 	0.75122 0.88620 0.52551 0.33600
C 	C 	0.70281 0.79818 0.44112 0.35200
O 	O 	0.64009 0.89118 0.49696 -0.43200
O 	O 	0.70782 0.77489 0.48280 -0.27100
O 	O 	0.68272 0.82988 0.45415 -0.52200
C 	C 	0.63805 0.91066 0.54570 0.33400
O 	O 	0.64914 0.89173 0.58912 -0.34200
C 	C 	0.62099 0.83474 0.86742 0.13000
N 	N 	0.61622 0.80803 0.90848 -0.13600
C 	C 	0.60708 0.82061 0.96280 0.10500
N 	N 	0.60316 0.86002 0.97595 -0.14000
C 	C 	0.60762 0.88663 0.93480 0.13800
N 	N 	0.61622 0.87390 0.88068 -0.13600
C 	C 	0.47094 0.71838 0.39693 0.12800
N 	N 	0.48027 0.70766 0.34199 -0.13800
C 	C 	0.47833 0.73456 0.30116 0.13400
N 	N 	0.46650 0.77207 0.31532 -0.14100
C 	C 	0.45700 0.78299 0.36996 0.13300
N 	N 	0.45949 0.75620 0.41082 -0.13900
Cd	Cd	0.71187 0.17723 0.25516 1.24500
Cd	Cd	0.76191 0.12512 0.35716 1.19400
O 	O 	0.69127 0.24567 0.28042 -0.30300
O 	O 	0.68429 0.21913 0.19471 -0.33300
C 	C 	0.67953 0.24974 0.22958 0.27200
O 	O 	0.73352 0.12210 0.20823 -0.34800
O 	O 	0.73707 0.08639 0.28803 -0.38800
C 	C 	0.74470 0.09010 0.23348 0.33700
C 	C 	0.79198 0.19332 0.27052 0.35100
O 	O 	0.70035 0.15330 0.35925 -0.43300
O 	O 	0.78082 0.20871 0.22420 -0.26500
O 	O 	0.76453 0.17919 0.30304 -0.52800
C 	C 	0.66846 0.13628 0.34258 0.33400
O 	O 	0.65831 0.14337 0.29149 -0.33400
Cd	Cd	0.94421 0.27864 0.09824 1.24600
Cd	Cd	0.99640 0.23505 0.97897 1.20300
O 	O 	0.88671 0.31851 0.08019 -0.29500
O 	O 	0.90154 0.30498 0.16682 -0.32300
C 	C 	0.87794 0.32220 0.13405 0.27500
O 	O 	0.98562 0.23773 0.13675 -0.34400
O 	O 	0.02879 0.23558 0.06024 -0.36900
C 	C 	0.01565 0.22117 0.10830 0.33300
C 	C 	0.91298 0.20989 0.04128 0.36800
O 	O 	0.98257 0.30001 0.00646 -0.42200
O 	O 	0.89637 0.21630 0.09158 -0.25700
O 	O 	0.93681 0.23745 0.02514 -0.51100
C 	C 	0.00397 0.32317 0.03774 0.32700
O 	O 	0.99280 0.32675 0.09123 -0.32500
C 	C 	0.76708 0.50747 0.98485 0.10400
N 	N 	0.80264 0.52485 0.97940 -0.13900
C 	C 	0.81431 0.54115 0.93007 0.12800
N 	N 	0.78993 0.54087 0.88642 -0.14100
C 	C 	0.75440 0.52325 0.89136 0.13000
N 	N 	0.74306 0.50638 0.94062 -0.14000
C 	C 	0.71082 0.47589 0.39422 0.12800
N 	N 	0.69939 0.47528 0.44994 -0.13800
C 	C 	0.72410 0.48788 0.49030 0.13400
N 	N 	0.75994 0.50177 0.47490 -0.14000
C 	C 	0.77171 0.50178 0.41941 0.13400
N 	N 	0.74698 0.48926 0.37911 -0.14000
Cd	Cd	0.27367 0.17806 0.74389 1.24600
Cd	Cd	0.25557 0.11733 0.85949 1.18300
O 	O 	0.32365 0.22953 0.75198 -0.29400
O 	O 	0.29736 0.21492 0.67091 -0.33900
C 	C 	0.32297 0.23581 0.69828 0.27800
O 	O 	0.23244 0.13165 0.71293 -0.38200
O 	O 	0.20581 0.11411 0.79970 -0.39500
C 	C 	0.20477 0.11449 0.74391 0.34800
C 	C 	0.32649 0.11604 0.76310 0.34700
O 	O 	0.25109 0.18575 0.85210 -0.42300
O 	O 	0.33217 0.12856 0.71207 -0.28100
O 	O 	0.30179 0.13629 0.79530 -0.53700
C 	C 	0.22144 0.20591 0.83628 0.33600
O 	O 	0.22199 0.21426 0.78295 -0.32800
Cd	Cd	0.09308 0.05141 0.47039 1.25000
Cd	Cd	0.05087 0.02383 0.33919 1.21400
O 	O 	0.14806 0.09868 0.46810 -0.29500
O 	O 	0.12230 0.07777 0.54832 -0.31400
C 	C 	0.14785 0.10022 0.52306 0.27700
O 	O 	0.03810 0.01853 0.49451 -0.32500
O 	O 	0.03403 0.98390 0.40943 -0.38000
C 	C 	0.01812 0.99600 0.45867 0.32700
C 	C 	0.04164 0.10485 0.42177 0.34800
O 	O 	0.11259 0.01456 0.37292 -0.41100
O 	O 	0.04868 0.11615 0.47375 -0.25200
O 	O 	0.06309 0.07600 0.40015 -0.51200
C 	C 	0.12392 0.98487 0.40183 0.32700
O 	O 	0.12578 0.99215 0.45617 -0.32400
C 	C 	0.51844 0.21809 0.87206 0.13300
N 	N 	0.54542 0.18876 0.87170 -0.13500
C 	C 	0.55035 0.16833 0.91907 0.14000
N 	N 	0.52816 0.17722 0.96661 -0.13900
C 	C 	0.50091 0.20611 0.96715 0.12000
N 	N 	0.49579 0.22640 0.91968 -0.13400
C 	C 	0.38817 0.13506 0.43931 0.12900
N 	N 	0.39849 0.15519 0.39246 -0.13800
C 	C 	0.41512 0.13569 0.34618 0.13600
N 	N 	0.42396 0.09666 0.34830 -0.13800
C 	C 	0.41492 0.07673 0.39575 0.14000
N 	N 	0.39610 0.09575 0.44056 -0.14000
C 	C 	0.47319 0.21066 0.01609 -0.02500
C 	C 	0.47863 0.24072 0.05850 0.10500
C 	C 	0.46374 0.23532 0.11393 -0.07900
C 	C 	0.44452 0.20004 0.12746 -0.00300
C 	C 	0.43491 0.17242 0.08350 0.08800
C 	C 	0.44828 0.17885 0.02781 -0.02700
N 	N 	0.49880 0.27424 0.04661 -0.19800
H 	H 	0.46941 0.25736 0.14725 0.06200
C 	C 	0.43942 0.18984 0.18764 -0.00000
N 	N 	0.41445 0.13892 0.09480 -0.19200
H 	H 	0.44233 0.15697 0.99443 0.06600
C 	C 	0.40298 0.19565 0.21561 -0.08400
C 	C 	0.39384 0.17724 0.26665 0.11200
C 	C 	0.42340 0.15663 0.29343 -0.04500
C 	C 	0.46094 0.15414 0.26790 -0.04900
C 	C 	0.46911 0.16985 0.21474 0.08000
H 	H 	0.38053 0.21150 0.19506 0.07100
N 	N 	0.35637 0.17754 0.28771 -0.19900
H 	H 	0.48367 0.13896 0.28881 0.06400
N 	N 	0.50530 0.16520 0.18970 -0.19400
H 	H 	0.33547 0.19489 0.26970 0.10800
H 	H 	0.34693 0.15857 0.31915 0.10800
H 	H 	0.52683 0.14996 0.20977 0.10400
H 	H 	0.51259 0.17680 0.15047 0.10000
H 	H 	0.40976 0.11751 0.06262 0.12900
H 	H 	0.40278 0.13385 0.13528 0.11400
H 	H 	0.50855 0.27984 0.00532 0.10800
H 	H 	0.50389 0.29571 0.07857 0.09700
C 	C 	0.29961 0.18046 0.52585 0.00800
C 	C 	0.25964 0.18726 0.52205 -0.04600
C 	C 	0.23336 0.16291 0.55145 0.02800
C 	C 	0.24720 0.13192 0.58276 0.00200
C 	C 	0.28687 0.12306 0.58269 -0.05300
C 	C 	0.31324 0.14774 0.55412 0.03600
S 	S 	0.33204 0.18959 0.47395 0.02700
C 	C 	0.36456 0.15458 0.48575 -0.01800
C 	C 	0.35006 0.13389 0.53239 -0.04100
S 	S 	0.21237 0.09795 0.58657 0.08200
C 	C 	0.17796 0.12159 0.55391 -0.05600
C 	C 	0.19426 0.15721 0.53557 -0.01200
H 	H 	0.24930 0.20823 0.49274 0.06300
H 	H 	0.29657 0.09561 0.59948 0.07200
H 	H 	0.36203 0.10584 0.54374 0.06400
H 	H 	0.18105 0.17468 0.50419 0.06600
C 	C 	0.43160 0.24343 0.66764 0.00400
C 	C 	0.46411 0.22374 0.68654 -0.04300
C 	C 	0.48494 0.24157 0.73056 0.03500
C 	C 	0.47377 0.27897 0.75401 0.00400
C 	C 	0.43981 0.29731 0.73797 -0.04700
C 	C 	0.41827 0.27896 0.69504 0.02600
S 	S 	0.39260 0.21934 0.64543 0.05800
C 	C 	0.35791 0.25107 0.66923 -0.06000
C 	C 	0.37727 0.28381 0.69370 -0.01700
S 	S 	0.48947 0.28256 0.81957 0.02300
C 	C 	0.51224 0.23903 0.81998 -0.01500
C 	C 	0.50683 0.21922 0.76760 -0.03500
H 	H 	0.47015 0.19341 0.67216 0.06800
H 	H 	0.42796 0.32252 0.76275 0.05600
H 	H 	0.36190 0.30588 0.72064 0.05800
H 	H 	0.51229 0.18782 0.76032 0.06900
C 	C 	0.73007 0.51889 0.84137 -0.05000
C 	C 	0.72734 0.55004 0.80364 0.10600
C 	C 	0.71665 0.54142 0.74785 -0.08500
C 	C 	0.70533 0.50295 0.73085 -0.00400
C 	C 	0.70137 0.47361 0.77165 0.07300
C 	C 	0.71483 0.48149 0.82626 -0.05100
N 	N 	0.73421 0.58818 0.82107 -0.19900
H 	H 	0.71793 0.56448 0.71734 0.06000
C 	C 	0.70395 0.49223 0.66943 -0.00300
N 	N 	0.68484 0.43795 0.75857 -0.19400
H 	H 	0.71490 0.45804 0.85612 0.05200
C 	C 	0.73256 0.46686 0.64431 -0.08400
C 	C 	0.73635 0.46132 0.58526 0.10800
C 	C 	0.71323 0.48397 0.55074 -0.04800
C 	C 	0.68276 0.50705 0.57564 -0.04900
C 	C 	0.67723 0.51056 0.63488 0.07300
H 	H 	0.75220 0.45173 0.67080 0.06200
N 	N 	0.76169 0.43380 0.56196 -0.19900
H 	H 	0.66397 0.52314 0.54902 0.05500
N 	N 	0.64623 0.53118 0.65823 -0.19400
H 	H 	0.78021 0.41867 0.58746 0.09700
H 	H 	0.76161 0.42554 0.51893 0.09900
H 	H 	0.62746 0.54585 0.63257 0.09000
H 	H 	0.63957 0.53150 0.70173 0.09100
H 	H 	0.68337 0.41584 0.78815 0.09100
H 	H 	0.67187 0.43247 0.71988 0.09400
H 	H 	0.73749 0.59597 0.86381 0.10000
H 	H 	0.73402 0.61081 0.79234 0.09300
C 	C 	0.04392 0.33357 0.01768 -0.10300
C 	C 	0.07540 0.32701 0.05207 0.11500
C 	C 	0.10982 0.31018 0.02751 0.08900
C 	C 	0.11431 0.30561 0.96804 -0.00900
C 	C 	0.08674 0.32270 0.93407 0.06400
C 	C 	0.05160 0.33734 0.95930 0.08100
C 	C 	0.14438 0.27857 0.94166 0.01300
C 	C 	0.18117 0.29339 0.92446 0.06900
C 	C 	0.20760 0.26879 0.89245 0.12900
C 	C 	0.19727 0.22934 0.87804 -0.12000
C 	C 	0.16185 0.21375 0.89919 0.12100
C 	C 	0.13506 0.23851 0.92978 0.08800
Br	Br	0.09602 0.32335 0.85322 -0.16100
Br	Br	0.07447 0.34891 0.12840 -0.14300
Br	Br	0.25779 0.28907 0.86792 -0.17800
Br	Br	0.08477 0.21807 0.95267 -0.28600
Br	Br	0.01368 0.36173 0.91446 -0.20200
Br	Br	0.14928 0.29118 0.07486 -0.11900
Br	Br	0.19468 0.34769 0.94306 -0.15900
Br	Br	0.14994 0.15844 0.88638 -0.19600
C 	C 	0.77800 0.37192 0.12934 -0.00800
C 	C 	0.75460 0.38810 0.08917 -0.05100
C 	C 	0.75196 0.42943 0.08767 0.02800
C 	C 	0.77225 0.45375 0.12625 -0.00100
C 	C 	0.79914 0.43760 0.16161 -0.05300
C 	C 	0.80214 0.39626 0.16259 0.02400
S 	S 	0.80024 0.32869 0.11877 0.08000
C 	C 	0.84021 0.33807 0.15492 -0.05300
C 	C 	0.83684 0.37709 0.17734 -0.02000
S 	S 	0.77849 0.49741 0.09767 0.02700
C 	C 	0.75547 0.48829 0.03761 0.00300
C 	C 	0.74235 0.44893 0.03804 -0.04800
H 	H 	0.74185 0.36922 0.05667 0.06000
H 	H 	0.81979 0.45654 0.18323 0.05400
H 	H 	0.86147 0.39334 0.19374 0.05300
H 	H 	0.73283 0.43303 0.00032 0.06100
C 	C 	0.00693 0.11865 0.39409 -0.14900
C 	C 	0.96937 0.11054 0.41733 0.12000
C 	C 	0.93637 0.12275 0.38983 0.07400
C 	C 	0.94062 0.14779 0.34400 0.01400
C 	C 	0.97807 0.15861 0.32355 0.06700
C 	C 	0.01121 0.14278 0.34713 0.11800
C 	C 	0.90568 0.16403 0.31896 0.01700
C 	C 	0.89034 0.14516 0.27053 0.06000
C 	C 	0.85505 0.15838 0.25015 0.11700
C 	C 	0.83326 0.18762 0.28149 -0.15700
C 	C 	0.84968 0.20812 0.32771 0.11700
C 	C 	0.88634 0.19691 0.34566 0.05700
Br	Br	0.98375 0.19693 0.26585 -0.13800
Br	Br	0.96292 0.08585 0.48909 -0.13800
Br	Br	0.83725 0.13746 0.17861 -0.14800
Br	Br	0.90980 0.22585 0.40752 -0.14800
Br	Br	0.06248 0.15625 0.31758 -0.16700
Br	Br	0.88523 0.10508 0.41473 -0.17900
Br	Br	0.91624 0.09956 0.23477 -0.11400
Br	Br	0.82190 0.25161 0.36611 -0.19800
C 	C 	0.64123 0.41057 0.30231 0.00300
C 	C 	0.62449 0.37297 0.29526 -0.05000
C 	C 	0.63755 0.34841 0.24901 0.02400
C 	C 	0.66720 0.36144 0.21137 0.00000
C 	C 	0.68672 0.39726 0.22210 -0.05200
C 	C 	0.67327 0.42205 0.26774 0.02800
S 	S 	0.64460 0.43435 0.36492 0.02300
C 	C 	0.68457 0.46104 0.35038 -0.01700
C 	C 	0.69749 0.45062 0.29465 -0.04200
S 	S 	0.68902 0.32139 0.18207 0.04400
C 	C 	0.66197 0.28665 0.21311 -0.05700
C 	C 	0.63424 0.30651 0.24916 -0.02100
H 	H 	0.60464 0.36173 0.32764 0.05600
H 	H 	0.71372 0.40381 0.19925 0.05400
H 	H 	0.72616 0.45827 0.27753 0.05500
H 	H 	0.61762 0.29161 0.28195 0.05400
C 	C 	0.45121 0.82527 0.38576 -0.04500
C 	C 	0.41438 0.84009 0.40562 0.10700
C 	C 	0.40876 0.88125 0.41213 -0.08100
C 	C 	0.43873 0.90762 0.39723 -0.00200
C 	C 	0.47591 0.89276 0.37935 0.08800
C 	C 	0.48193 0.85170 0.37498 -0.04700
N 	N 	0.38417 0.81519 0.41739 -0.19900
H 	H 	0.38053 0.89279 0.42675 0.06600
C 	C 	0.43029 0.95061 0.39768 0.00700
N 	N 	0.50566 0.91764 0.36519 -0.19100
H 	H 	0.51029 0.84023 0.36079 0.06100
C 	C 	0.43949 0.97452 0.44515 -0.08900
C 	C 	0.43712 0.01596 0.44407 0.12900
C 	C 	0.42193 0.03356 0.39632 -0.04900
C 	C 	0.41154 0.00944 0.34954 -0.03700
C 	C 	0.41593 0.96816 0.34945 0.07200
H 	H 	0.45080 0.96096 0.48178 0.08100
N 	N 	0.45128 0.03860 0.48752 -0.19800
H 	H 	0.39967 0.02282 0.31317 0.06300
N 	N 	0.40638 0.94564 0.30298 -0.19200
H 	H 	0.45958 0.02551 0.52437 0.11700
H 	H 	0.45731 0.06864 0.48335 0.11600
H 	H 	0.39602 0.95892 0.26749 0.10400
H 	H 	0.40897 0.91485 0.30152 0.10000
H 	H 	0.53314 0.90636 0.35285 0.10600
H 	H 	0.50184 0.94826 0.36576 0.11600
H 	H 	0.38711 0.78452 0.41232 0.10000
H 	H 	0.35710 0.82649 0.43181 0.09900
C 	C 	0.60671 0.92939 0.94924 -0.05100
C 	C 	0.57095 0.94936 0.96105 0.12000
C 	C 	0.56970 0.99074 0.95848 -0.09600
C 	C 	0.60327 0.01225 0.94340 0.01200
C 	C 	0.63962 0.99269 0.93685 0.07600
C 	C 	0.64100 0.95140 0.94069 -0.04000
N 	N 	0.53769 0.92903 0.97380 -0.20100
H 	H 	0.54214 0.00608 0.96559 0.08100
C 	C 	0.59922 0.05434 0.92976 0.00400
N 	N 	0.67304 0.01313 0.92541 -0.18600
H 	H 	0.66857 0.93609 0.93362 0.06700
C 	C 	0.60751 0.08390 0.97086 -0.10400
C 	C 	0.59709 0.12338 0.96345 0.10500
C 	C 	0.57509 0.13266 0.91659 -0.04100
C 	C 	0.57039 0.10393 0.87281 -0.04300
C 	C 	0.58283 0.06486 0.87861 0.08800
H 	H 	0.62172 0.07611 0.00889 0.09800
N 	N 	0.60851 0.15228 0.00098 -0.17700
H 	H 	0.55507 0.11138 0.83559 0.07200
N 	N 	0.57852 0.03753 0.83541 -0.19200
H 	H 	0.62326 0.14509 0.03687 0.11200
H 	H 	0.60463 0.18218 0.99329 0.09000
H 	H 	0.56500 0.04515 0.79867 0.11400
H 	H 	0.58969 0.00893 0.83702 0.11100
H 	H 	0.69962 0.99826 0.91962 0.12100
H 	H 	0.67313 0.04385 0.92263 0.11300
H 	H 	0.53757 0.89831 0.97652 0.10800
H 	H 	0.51146 0.94410 0.98230 0.11700
C 	C 	0.59814 0.79149 0.00639 0.01100
C 	C 	0.61044 0.79785 0.06237 0.10200
C 	C 	0.59194 0.77731 0.10632 -0.06400
C 	C 	0.56402 0.74803 0.09445 -0.01500
C 	C 	0.55670 0.73716 0.03747 0.11400
C 	C 	0.57296 0.75978 0.99393 -0.11200
N 	N 	0.64057 0.82270 0.07384 -0.19200
H 	H 	0.59893 0.78444 0.14985 0.06900
C 	C 	0.53887 0.73328 0.14161 0.00200
N 	N 	0.53423 0.70513 0.02440 -0.18800
H 	H 	0.56500 0.75348 0.95061 0.06800
C 	C 	0.49946 0.74417 0.14564 -0.08600
C 	C 	0.47709 0.73888 0.19574 0.10900
C 	C 	0.49524 0.72528 0.24375 -0.04700
C 	C 	0.53323 0.71010 0.23764 -0.05000
C 	C 	0.55498 0.71323 0.18637 0.08000
H 	H 	0.48649 0.75779 0.11030 0.06600
N 	N 	0.43828 0.74673 0.19756 -0.19900
H 	H 	0.54662 0.69775 0.27362 0.06500
N 	N 	0.59119 0.69711 0.18041 -0.19400
H 	H 	0.42531 0.75839 0.16275 0.09800
H 	H 	0.42038 0.73950 0.23241 0.09900
H 	H 	0.60343 0.68353 0.21428 0.11600
H 	H 	0.60678 0.69644 0.14152 0.11200
H 	H 	0.52771 0.69815 0.98239 0.07900
H 	H 	0.52445 0.68596 0.05545 0.09700
H 	H 	0.65820 0.83409 0.04132 0.12700
H 	H 	0.64818 0.82886 0.11561 0.12400
C 	C 	0.62061 0.95041 0.55171 -0.13000
C 	C 	0.64279 0.98180 0.57386 0.11800
C 	C 	0.64370 0.01791 0.54656 0.06200
C 	C 	0.61734 0.02406 0.50365 0.02400
C 	C 	0.58684 0.99670 0.49544 0.05300
C 	C 	0.58884 0.95928 0.51896 0.12200
C 	C 	0.62643 0.05330 0.46012 0.00100
C 	C 	0.61813 0.09379 0.47110 0.06900
C 	C 	0.63019 0.12159 0.43121 0.11700
C 	C 	0.64673 0.10841 0.37823 -0.13200
C 	C 	0.64800 0.06764 0.36393 0.10500
C 	C 	0.64195 0.04035 0.40637 0.08200
Br	Br	0.54527 0.00898 0.44719 -0.19000
Br	Br	0.66589 0.97734 0.64575 -0.16600
Br	Br	0.62327 0.17745 0.44833 -0.18900
Br	Br	0.65720 0.98586 0.39196 -0.29900
Br	Br	0.54920 0.92001 0.50554 -0.20800
Br	Br	0.68342 0.05646 0.56321 -0.15600
Br	Br	0.58942 0.11080 0.53958 -0.16300
Br	Br	0.65245 0.04924 0.28581 -0.16500
C 	C 	0.79267 0.89698 0.53285 -0.11800
C 	C 	0.82248 0.87049 0.51364 0.12300
C 	C 	0.86107 0.88431 0.50626 0.06700
C 	C 	0.87027 0.92390 0.52180 0.02200
C 	C 	0.84140 0.94866 0.54817 0.05800
C 	C 	0.80266 0.93523 0.55375 0.12300
C 	C 	0.90886 0.94083 0.50477 0.01600
C 	C 	0.94042 0.93882 0.54070 0.08000
C 	C 	0.97567 0.95840 0.52722 0.12900
C 	C 	0.97985 0.97926 0.47681 -0.10100
C 	C 	0.94835 0.98052 0.44032 0.12900
C 	C 	0.91314 0.96114 0.45416 0.07200
Br	Br	0.85459 0.00176 0.57374 -0.11300
Br	Br	0.81077 0.81525 0.49909 -0.18000
Br	Br	0.01831 0.95562 0.57733 -0.11500
Br	Br	0.87062 0.96209 0.40344 -0.13900
Br	Br	0.76383 0.96853 0.59228 -0.15400
Br	Br	0.90083 0.84979 0.47215 -0.15400
Br	Br	0.93594 0.90790 0.60713 -0.16400
Br	Br	0.95307 0.00943 0.37166 -0.21800
C 	C 	0.52890 0.66353 0.50636 0.00200
C 	C 	0.56685 0.66350 0.52550 -0.04900
C 	C 	0.57493 0.68563 0.57515 0.02300
C 	C 	0.54442 0.70394 0.60812 0.00100
C 	C 	0.50662 0.70468 0.58829 -0.05200
C 	C 	0.49949 0.68609 0.53563 0.02800
S 	S 	0.51988 0.66374 0.43800 0.03200
C 	C 	0.47958 0.69126 0.44186 -0.02000
C 	C 	0.47156 0.70109 0.49943 -0.04200
S 	S 	0.56352 0.74305 0.64141 0.03700
C 	C 	0.60932 0.73992 0.61554 -0.06000
C 	C 	0.61142 0.70500 0.58125 -0.02000
H 	H 	0.59050 0.65178 0.49802 0.06200
H 	H 	0.48499 0.72427 0.60895 0.05500
H 	H 	0.45084 0.72387 0.51364 0.05600
H 	H 	0.63593 0.69897 0.55178 0.06200
C 	C 	0.98276 0.01565 0.74249 -0.10100
C 	C 	0.98902 0.03403 0.69031 0.13000
C 	C 	0.02527 0.05193 0.67724 0.08000
C 	C 	0.05474 0.05276 0.71689 0.01900
C 	C 	0.04777 0.03636 0.76999 0.07200
C 	C 	0.01209 0.01771 0.78271 0.13900
C 	C 	0.09307 0.07126 0.70339 0.02100
C 	C 	0.12562 0.04696 0.69019 0.06900
C 	C 	0.16321 0.06120 0.70117 0.12100
C 	C 	0.16858 0.10143 0.71724 -0.12100
C 	C 	0.13664 0.12744 0.71795 0.12900
C 	C 	0.09864 0.11212 0.71486 0.06800
Br	Br	0.08670 0.04110 0.82652 -0.12900
Br	Br	0.94701 0.03870 0.63955 -0.10500
Br	Br	0.20668 0.02538 0.69716 -0.17800
Br	Br	0.05446 0.14621 0.73183 -0.13300
Br	Br	0.00303 0.99627 0.85632 -0.26900
Br	Br	0.03379 0.07742 0.60657 -0.14600
Br	Br	0.11835 0.99398 0.65909 -0.12800
Br	Br	0.14501 0.18376 0.72208 -0.16700
C 	C 	0.82807 0.02025 0.83798 -0.14600
C 	C 	0.83942 0.05463 0.80938 0.12200
C 	C 	0.84530 0.09037 0.84057 0.06100
C 	C 	0.83845 0.09205 0.89964 0.02000
C 	C 	0.81974 0.06018 0.92584 0.04000
C 	C 	0.81600 0.02369 0.89561 0.10600
C 	C 	0.85759 0.12319 0.93468 0.00700
C 	C 	0.89694 0.11886 0.94752 0.08000
C 	C 	0.91643 0.14990 0.97569 0.13200
C 	C 	0.89520 0.18248 0.99946 -0.15900
C 	C 	0.85593 0.18735 0.98592 0.12200
C 	C 	0.83738 0.15802 0.95250 0.07000
Br	Br	0.79915 0.06694 0.00258 -0.10600
Br	Br	0.84811 0.05279 0.72822 -0.12400
Br	Br	0.97240 0.15004 0.97471 -0.30800
Br	Br	0.78461 0.16564 0.93058 -0.16300
Br	Br	0.79701 0.97775 0.93363 -0.22500
Br	Br	0.86491 0.13643 0.80319 -0.14200
Br	Br	0.92381 0.06989 0.92810 -0.25000
Br	Br	0.82847 0.23527 0.00996 -0.15300
C 	C 	0.74930 0.79929 0.70286 0.00100
C 	C 	0.72259 0.78107 0.73987 -0.04500
C 	C 	0.68546 0.79783 0.74882 0.03000
C 	C 	0.67561 0.83198 0.72072 0.01200
C 	C 	0.70385 0.85286 0.68974 -0.07200
C 	C 	0.74097 0.83616 0.68080 0.03600
S 	S 	0.79706 0.79748 0.70962 0.05500
C 	C 	0.80925 0.84150 0.68452 -0.04800
C 	C 	0.77467 0.85957 0.67000 -0.01500
S 	S 	0.63922 0.85384 0.75788 0.04100
C 	C 	0.63386 0.82176 0.80956 -0.02200
C 	C 	0.66190 0.79200 0.79863 -0.04100
H 	H 	0.73165 0.75699 0.76508 0.05400
H 	H 	0.69831 0.88285 0.67782 0.07800
H 	H 	0.77298 0.89098 0.66311 0.07400
H 	H 	0.66965 0.77141 0.83015 0.05500
C 	C 	0.99831 0.60387 0.36797 -0.04600
C 	C 	0.99171 0.56519 0.34475 0.10800
C 	C 	0.95390 0.54930 0.34727 -0.08300
C 	C 	0.92334 0.56992 0.37637 -0.00200
C 	C 	0.93028 0.60792 0.40169 0.08100
C 	C 	0.96756 0.62483 0.39614 -0.04800
N 	N 	0.02166 0.54256 0.32226 -0.19800
H 	H 	0.94858 0.52004 0.32853 0.06300
C 	C 	0.88490 0.55024 0.38314 -0.00400
N 	N 	0.90147 0.62818 0.43156 -0.19300
H 	H 	0.97271 0.65434 0.41417 0.06300
C 	C 	0.88035 0.52011 0.42178 -0.08300
C 	C 	0.84431 0.50113 0.42993 0.10800
C 	C 	0.81138 0.51520 0.40298 -0.04700
C 	C 	0.81618 0.54435 0.36278 -0.05100
C 	C 	0.85294 0.56124 0.35136 0.08200
H 	H 	0.90521 0.51073 0.44454 0.06200
N 	N 	0.84188 0.46843 0.46146 -0.19800
H 	H 	0.79117 0.55432 0.34087 0.06400
N 	N 	0.85730 0.58795 0.31017 -0.19400
H 	H 	0.86561 0.45972 0.48414 0.09700
H 	H 	0.81760 0.44982 0.46041 0.10000
H 	H 	0.83336 0.59649 0.28780 0.11800
H 	H 	0.88454 0.59966 0.29886 0.11500
H 	H 	0.90677 0.65646 0.44924 0.10500
H 	H 	0.87381 0.61600 0.43832 0.10500
H 	H 	0.05063 0.55094 0.32698 0.10200
H 	H 	0.01619 0.51493 0.30259 0.10100
C 	C 	0.85280 0.56060 0.92493 -0.03900
C 	C 	0.87860 0.55267 0.87744 0.10300
C 	C 	0.91322 0.57463 0.87180 -0.08100
C 	C 	0.92463 0.60090 0.91558 -0.00400
C 	C 	0.90008 0.60674 0.96486 0.07200
C 	C 	0.86378 0.58765 0.96802 -0.07500
N 	N 	0.87134 0.52286 0.83881 -0.19800
H 	H 	0.93223 0.56991 0.83435 0.06100
C 	C 	0.96217 0.62248 0.90894 -0.00500
N 	N 	0.91149 0.62988 0.00960 -0.18500
H 	H 	0.84425 0.59342 0.00465 0.08400
C 	C 	0.96171 0.66306 0.89870 -0.08600
C 	C 	0.99662 0.68412 0.89009 0.11000
C 	C 	0.03256 0.66370 0.88926 -0.05000
C 	C 	0.03303 0.62307 0.89876 -0.05000
C 	C 	0.99824 0.60248 0.91051 0.07000
H 	H 	0.93408 0.67839 0.89806 0.06600
N 	N 	0.99545 0.72388 0.88334 -0.20000
H 	H 	0.06064 0.60761 0.89839 0.05200
N 	N 	0.99974 0.56394 0.92472 -0.19500
H 	H 	0.96876 0.73859 0.88335 0.11400
H 	H 	0.02086 0.74075 0.87943 0.11200
H 	H 	0.02641 0.54915 0.92430 0.09600
H 	H 	0.97481 0.54875 0.93838 0.09500
H 	H 	0.89249 0.63551 0.04469 0.11400
H 	H 	0.93976 0.64092 0.01120 0.10600
H 	H 	0.84986 0.50165 0.84664 0.10100
H 	H 	0.88922 0.51892 0.80216 0.09500
C 	C 	0.10940 0.66788 0.45758 -0.04800
C 	C 	0.11625 0.70857 0.47090 0.11500
C 	C 	0.12682 0.72039 0.52586 -0.08500
C 	C 	0.12799 0.69285 0.56850 -0.00100
C 	C 	0.12254 0.65202 0.55450 0.07600
C 	C 	0.11523 0.63994 0.49847 -0.04800
N 	N 	0.11156 0.73650 0.43199 -0.20000
H 	H 	0.13174 0.75150 0.53639 0.07200
C 	C 	0.12933 0.70766 0.62840 0.00100
N 	N 	0.12278 0.62448 0.59484 -0.19400
H 	H 	0.11098 0.60874 0.48773 0.05500
C 	C 	0.09626 0.72615 0.65408 -0.08200
C 	C 	0.09315 0.73272 0.71301 0.11700
C 	C 	0.12226 0.71787 0.74679 -0.04300
C 	C 	0.15743 0.70419 0.72084 -0.04800
C 	C 	0.16166 0.70007 0.66146 0.07700
H 	H 	0.07248 0.73442 0.62834 0.07000
N 	N 	0.06236 0.75336 0.73699 -0.19800
H 	H 	0.18073 0.69487 0.74673 0.05800
N 	N 	0.19619 0.68779 0.63668 -0.19300
H 	H 	0.04007 0.76283 0.71211 0.10900
H 	H 	0.06129 0.76189 0.78000 0.11300
H 	H 	0.21945 0.68078 0.66144 0.09400
H 	H 	0.20064 0.68638 0.59270 0.09700
H 	H 	0.11988 0.59439 0.58361 0.09400
H 	H 	0.12445 0.63248 0.63771 0.09600
H 	H 	0.10256 0.72909 0.39136 0.12100
H 	H 	0.11663 0.76639 0.44243 0.11700
C 	C 	0.19913 0.06168 0.10336 -0.11000
C 	C 	0.16968 0.05155 0.14376 0.12900
C 	C 	0.14179 0.07991 0.16304 0.08300
C 	C 	0.13798 0.11504 0.13387 0.01700
C 	C 	0.16675 0.12498 0.09257 0.06500
C 	C 	0.19861 0.09952 0.08024 0.13400
C 	C 	0.10211 0.13948 0.14263 0.02300
C 	C 	0.06664 0.12608 0.12046 0.06700
C 	C 	0.03447 0.15164 0.12231 0.12100
C 	C 	0.03965 0.19202 0.13566 -0.10000
C 	C 	0.07297 0.20438 0.16419 0.13500
C 	C 	0.10388 0.17759 0.16927 0.07500
Br	Br	0.16147 0.17221 0.05056 -0.12900
Br	Br	0.16220 0.99732 0.16332 -0.15400
Br	Br	0.98278 0.13069 0.11636 -0.12700
Br	Br	0.14862 0.19301 0.21150 -0.12900
Br	Br	0.24098 0.11618 0.03063 -0.24600
Br	Br	0.10819 0.07014 0.22830 -0.22100
Br	Br	0.06304 0.07458 0.08283 -0.10000
Br	Br	0.07473 0.25645 0.19986 -0.12200
C 	C 	0.16834 0.92485 0.96738 -0.15200
C 	C 	0.16729 0.88748 0.93834 0.13000
C 	C 	0.13358 0.87557 0.91028 0.06300
C 	C 	0.09951 0.89864 0.91712 0.01700
C 	C 	0.09949 0.93354 0.95165 0.06800
C 	C 	0.13454 0.94836 0.97212 0.11200
C 	C 	0.06553 0.88929 0.88254 0.01500
C 	C 	0.06379 0.90444 0.82821 0.06800
C 	C 	0.02849 0.90343 0.80044 0.12100
C 	C 	0.99423 0.89057 0.82921 -0.12300
C 	C 	0.99715 0.87028 0.87969 0.11800
C 	C 	0.03302 0.86941 0.90622 0.06700
Br	Br	0.05112 0.95934 0.97448 -0.13500
Br	Br	0.21029 0.85121 0.94146 -0.20400
Br	Br	0.02741 0.91912 0.72317 -0.14100
Br	Br	0.03752 0.84211 0.97552 -0.17900
Br	Br	0.13649 0.00145 0.00471 -0.13300
Br	Br	0.13443 0.82871 0.86087 -0.17500
Br	Br	0.10919 0.92876 0.79348 -0.13500
Br	Br	0.95324 0.84086 0.90942 -0.19800
C 	C 	0.36501 0.00053 0.02877 -0.11400
C 	C 	0.39557 0.98416 0.99400 0.07400
C 	C 	0.41011 0.00511 0.94743 0.07900
C 	C 	0.39188 0.04058 0.93436 0.00000
C 	C 	0.36829 0.06063 0.97660 0.01700
C 	C 	0.35635 0.04081 0.02536 0.09500
C 	C 	0.38795 0.05004 0.87441 0.00600
C 	C 	0.40613 0.08405 0.85334 0.06800
C 	C 	0.38831 0.10470 0.81101 0.12600
C 	C 	0.35411 0.08931 0.78749 -0.14600
C 	C 	0.34240 0.05054 0.79861 0.08600
C 	C 	0.35879 0.03097 0.84297 0.04900
Br	Br	0.34875 0.11283 0.96457 -0.27100
Br	Br	0.41470 0.93212 0.00737 -0.16900
Br	Br	0.40872 0.15510 0.78841 -0.19800
Br	Br	0.33957 0.97954 0.86305 -0.31400
Br	Br	0.32757 0.06792 0.08669 -0.21000
Br	Br	0.45173 0.98378 0.89847 -0.18800
Br	Br	0.45393 0.10304 0.88447 -0.19000
Br	Br	0.30331 0.02502 0.75408 -0.23200
C 	C 	0.22529 0.76992 0.09931 0.00300
C 	C 	0.22072 0.74431 0.05170 -0.05200
C 	C 	0.18436 0.74286 0.02693 0.05500
C 	C 	0.15407 0.76758 0.04828 0.01300
C 	C 	0.15990 0.79619 0.09147 -0.04800
C 	C 	0.19573 0.79679 0.11787 0.03500
S 	S 	0.26743 0.79101 0.11471 0.05200
C 	C 	0.25099 0.83362 0.14556 -0.05200
C 	C 	0.21014 0.83164 0.14550 -0.02000
S 	S 	0.12251 0.77186 0.99769 0.03200
C 	C 	0.14485 0.74227 0.94813 0.00300
C 	C 	0.17876 0.72781 0.97085 -0.06700
H 	H 	0.24551 0.72870 0.03179 0.06300
H 	H 	0.13851 0.81924 0.10117 0.08000
H 	H 	0.19227 0.85779 0.15298 0.08000
H 	H 	0.19872 0.70761 0.94785 0.05800
C 	C 	0.84161 0.87782 0.08168 -0.10700
C 	C 	0.80166 0.87760 0.09620 0.11500
C 	C 	0.78307 0.91291 0.11536 0.07100
C 	C 	0.80262 0.94940 0.10916 0.02200
C 	C 	0.83973 0.94982 0.08091 0.06800
C 	C 	0.85944 0.91383 0.06782 0.12900
C 	C 	0.78758 0.98577 0.14035 0.01700
C 	C 	0.75576 0.00664 0.12048 0.08000
C 	C 	0.74154 0.04085 0.15068 0.13500
C 	C 	0.76046 0.05547 0.19932 -0.11100
C 	C 	0.79250 0.03458 0.21870 0.14000
C 	C 	0.80467 0.99889 0.19090 0.06300
Br	Br	0.86515 0.99945 0.06611 -0.14200
Br	Br	0.77281 0.82908 0.08964 -0.17400
Br	Br	0.69430 0.06534 0.12792 -0.16100
Br	Br	0.84325 0.96663 0.22396 -0.12600
Br	Br	0.91154 0.91380 0.03448 -0.16700
Br	Br	0.73393 0.91060 0.15763 -0.16100
Br	Br	0.72994 0.98698 0.05405 -0.14200
Br	Br	0.82010 0.05492 0.28326 -0.23600
C 	C 	0.70961 0.78404 0.38188 -0.14800
C 	C 	0.73669 0.80357 0.34646 0.11300
C 	C 	0.74723 0.78674 0.29277 0.07100
C 	C 	0.73382 0.74862 0.27678 0.00800
C 	C 	0.70410 0.73082 0.30971 0.06700
C 	C 	0.69119 0.74915 0.36166 0.13000
C 	C 	0.75586 0.72498 0.23219 0.01300
C 	C 	0.74836 0.72951 0.17472 0.06600
C 	C 	0.77853 0.72267 0.13330 0.12200
C 	C 	0.81601 0.71369 0.15041 -0.14600
C 	C 	0.82008 0.69922 0.20464 0.10400
C 	C 	0.79000 0.70532 0.24612 0.04400
Br	Br	0.68263 0.68057 0.28495 -0.18200
Br	Br	0.76182 0.85154 0.37301 -0.32300
Br	Br	0.76834 0.72306 0.05404 -0.16700
Br	Br	0.79676 0.69032 0.32275 -0.19400
Br	Br	0.64780 0.72718 0.40441 -0.20300
Br	Br	0.78055 0.81549 0.24149 -0.31200
Br	Br	0.69820 0.74777 0.15379 -0.17700
Br	Br	0.86778 0.67380 0.22252 -0.23100
C 	C 	0.98808 0.83516 0.21524 -0.12100
C 	C 	0.01763 0.81170 0.23625 0.12300
C 	C 	0.04724 0.82965 0.26769 0.07100
C 	C 	0.04718 0.87095 0.27839 0.00600
C 	C 	0.01823 0.89441 0.25609 0.09300
C 	C 	0.98840 0.87647 0.22528 0.11200
C 	C 	0.07673 0.88969 0.31455 0.01600
C 	C 	0.07002 0.89292 0.37376 0.06000
C 	C 	0.09390 0.91778 0.40635 0.12200
C 	C 	0.11973 0.94381 0.37894 -0.13000
C 	C 	0.13194 0.93458 0.32271 0.11400
C 	C 	0.10986 0.90794 0.28971 0.05900
Br	Br	0.02032 0.95124 0.26600 -0.26900
Br	Br	0.01798 0.75514 0.22081 -0.20100
Br	Br	0.09612 0.91130 0.48644 -0.14100
Br	Br	0.12293 0.89862 0.21039 -0.15800
Br	Br	0.94778 0.90846 0.19691 -0.14000
Br	Br	0.08835 0.79791 0.29522 -0.18800
Br	Br	0.02617 0.86660 0.40926 -0.15100
Br	Br	0.18083 0.95485 0.29411 -0.16700
C 	C 	0.06609 0.65717 0.06841 0.00800
C 	C 	0.07895 0.62995 0.10642 -0.05100
C 	C 	0.10080 0.64383 0.15191 0.03200
C 	C 	0.11034 0.68425 0.15799 0.00100
C 	C 	0.09498 0.71178 0.12253 -0.04300
C 	C 	0.07272 0.69799 0.07730 0.02900
S 	S 	0.02388 0.65233 0.03759 0.04000
C 	C 	0.01257 0.69996 0.03219 -0.04800
C 	C 	0.04349 0.72181 0.05499 -0.01400
S 	S 	0.11692 0.69421 0.22631 0.05600
C 	C 	0.10930 0.64905 0.25048 -0.02300
C 	C 	0.10086 0.62402 0.20367 -0.03800
H 	H 	0.06827 0.59972 0.10461 0.05800
H 	H 	0.09605 0.74313 0.13407 0.06900
H 	H 	0.04077 0.75312 0.06645 0.06900
H 	H 	0.08824 0.59483 0.20825 0.05600
