data_crystal

_cell_length_a 42.82166
_cell_length_b 35.97676
_cell_length_c 28.18591
_cell_angle_alpha 90.00005
_cell_angle_beta  89.99974
_cell_angle_gamma 90.00090

_symmetry_space_group_name_	'P 1'
_symmetry_space_group_name_H-M	'P 1'

loop_
_symmetry_equiv_pos_as_xyz
  x,y,z

loop_
_atom_site_label
_atom_site_type_symbol
_atom_site_fract_x
_atom_site_fract_y
_atom_site_fract_z
_atom_site_charge
Cu	Cu	0.16254 0.84422 0.32427 0.92700
Cu	Cu	0.19713 0.77849 0.26379 0.86300
Cu	Cu	0.17861 0.85091 0.21971 0.89400
Cu	Cu	0.15835 0.92049 0.26988 0.89200
C 	C 	0.16678 0.91354 0.37394 0.27800
O 	O 	0.11641 0.85525 0.31843 -0.36400
C 	C 	0.18442 0.78268 0.16374 0.27100
O 	O 	0.18577 0.87957 0.27627 -0.64000
O 	O 	0.16262 0.81382 0.26634 -0.64300
O 	O 	0.18155 0.80668 0.36634 -0.37600
O 	O 	0.22201 0.79418 0.31661 -0.43400
O 	O 	0.15095 0.92895 0.33891 -0.38400
O 	O 	0.19617 0.88742 0.17686 -0.38500
C 	C 	0.18645 0.92215 0.17354 0.28000
C 	C 	0.10385 0.86669 0.27841 0.27200
O 	O 	0.12124 0.88353 0.24650 -0.39400
O 	O 	0.17829 0.94115 0.21174 -0.39300
O 	O 	0.16997 0.87711 0.37632 -0.36500
C 	C 	0.21036 0.79562 0.35970 0.28300
O 	O 	0.17528 0.81780 0.16504 -0.38200
O 	O 	0.18366 0.76178 0.20228 -0.41500
H 	H 	0.20792 0.88590 0.28234 0.16200
H 	H 	0.14217 0.80308 0.25737 0.17300
Cu	Cu	0.31376 0.63675 0.82426 0.92800
Cu	Cu	0.27920 0.70250 0.76379 0.86400
Cu	Cu	0.29769 0.63007 0.71970 0.89500
Cu	Cu	0.31793 0.56047 0.76988 0.89300
C 	C 	0.30950 0.56743 0.87393 0.27900
O 	O 	0.35990 0.62570 0.81842 -0.36300
C 	C 	0.29190 0.69830 0.66374 0.27200
O 	O 	0.29052 0.60141 0.77627 -0.64000
O 	O 	0.31370 0.66715 0.76633 -0.64300
O 	O 	0.29476 0.67430 0.86633 -0.37600
O 	O 	0.25431 0.68682 0.81660 -0.43400
O 	O 	0.32533 0.55202 0.83890 -0.38400
O 	O 	0.28012 0.59357 0.67686 -0.38500
C 	C 	0.28983 0.55884 0.67353 0.28000
C 	C 	0.37245 0.61425 0.77840 0.27200
O 	O 	0.35505 0.59742 0.74649 -0.39400
O 	O 	0.29799 0.53983 0.71174 -0.39300
O 	O 	0.30632 0.60387 0.87631 -0.36500
C 	C 	0.26597 0.68537 0.85970 0.28300
O 	O 	0.30103 0.66318 0.66503 -0.38200
O 	O 	0.29267 0.71920 0.70227 -0.41500
H 	H 	0.26837 0.59510 0.78234 0.16200
H 	H 	0.33415 0.67788 0.75736 0.17300
Cu	Cu	0.31365 0.34408 0.21540 0.92800
Cu	Cu	0.27922 0.27850 0.27625 0.86400
Cu	Cu	0.29738 0.35128 0.31984 0.89500
Cu	Cu	0.31749 0.42084 0.26900 0.89300
C 	C 	0.30916 0.41314 0.16507 0.28000
O 	O 	0.35975 0.35519 0.22132 -0.36000
C 	C 	0.29169 0.28317 0.37625 0.27200
O 	O 	0.29030 0.37964 0.26300 -0.64000
O 	O 	0.31357 0.31402 0.27359 -0.64300
O 	O 	0.29474 0.30627 0.17363 -0.37600
O 	O 	0.25427 0.29389 0.22338 -0.43500
O 	O 	0.32491 0.42887 0.19994 -0.38400
O 	O 	0.27967 0.38801 0.36221 -0.38500
C 	C 	0.28945 0.42272 0.36536 0.28000
C 	C 	0.37224 0.36724 0.26106 0.27400
O 	O 	0.35489 0.38445 0.29267 -0.39300
O 	O 	0.29749 0.44164 0.32703 -0.39300
O 	O 	0.30625 0.37666 0.16296 -0.36400
C 	C 	0.26593 0.29525 0.18029 0.28300
O 	O 	0.30044 0.31843 0.37486 -0.38100
O 	O 	0.29278 0.26218 0.33783 -0.41500
H 	H 	0.26814 0.38578 0.25675 0.16200
H 	H 	0.33405 0.30344 0.28272 0.17200
Cu	Cu	0.16257 0.13689 0.71541 0.92800
Cu	Cu	0.19698 0.20249 0.77626 0.86400
Cu	Cu	0.17884 0.12970 0.81985 0.89500
Cu	Cu	0.15875 0.06013 0.76901 0.89300
C 	C 	0.16708 0.06783 0.66508 0.28000
O 	O 	0.11648 0.12576 0.72133 -0.36000
C 	C 	0.18451 0.19781 0.87626 0.27200
O 	O 	0.18593 0.10135 0.76300 -0.64000
O 	O 	0.16264 0.16695 0.77360 -0.64300
O 	O 	0.18146 0.17471 0.67364 -0.37600
O 	O 	0.22193 0.18711 0.72338 -0.43500
O 	O 	0.15134 0.05209 0.69995 -0.38400
O 	O 	0.19656 0.09298 0.86221 -0.38400
C 	C 	0.18679 0.05826 0.86537 0.28000
C 	C 	0.10399 0.11371 0.76107 0.27400
O 	O 	0.12134 0.09650 0.79267 -0.39300
O 	O 	0.17876 0.03934 0.82703 -0.39200
O 	O 	0.16998 0.10431 0.66297 -0.36400
C 	C 	0.21027 0.18574 0.68029 0.28300
O 	O 	0.17578 0.16255 0.87487 -0.38100
O 	O 	0.18341 0.21880 0.83783 -0.41500
H 	H 	0.20810 0.09521 0.75675 0.16200
H 	H 	0.14215 0.17752 0.78273 0.17200
Cu	Cu	0.66257 0.34397 0.29881 0.92800
Cu	Cu	0.69698 0.27837 0.23797 0.86400
Cu	Cu	0.67884 0.35116 0.19437 0.89500
Cu	Cu	0.65875 0.42073 0.24521 0.89300
C 	C 	0.66708 0.41302 0.34914 0.28000
O 	O 	0.61648 0.35510 0.29289 -0.36000
C 	C 	0.68451 0.28305 0.13796 0.27200
O 	O 	0.68593 0.37951 0.25122 -0.64000
O 	O 	0.66264 0.31390 0.24062 -0.64300
O 	O 	0.68146 0.30615 0.34058 -0.37600
O 	O 	0.72193 0.29375 0.29084 -0.43500
O 	O 	0.65134 0.42876 0.31427 -0.38400
O 	O 	0.69657 0.38788 0.15201 -0.38400
C 	C 	0.68679 0.42260 0.14885 0.28000
C 	C 	0.60399 0.36715 0.25315 0.27400
O 	O 	0.62134 0.38436 0.22155 -0.39300
O 	O 	0.67877 0.44152 0.18719 -0.39300
O 	O 	0.66998 0.37654 0.35125 -0.36400
C 	C 	0.71027 0.29512 0.33393 0.28300
O 	O 	0.67578 0.31831 0.13935 -0.38100
O 	O 	0.68341 0.26205 0.17639 -0.41500
H 	H 	0.70810 0.38565 0.25747 0.16200
H 	H 	0.64215 0.30334 0.23149 0.17200
Cu	Cu	0.81365 0.13678 0.79882 0.92800
Cu	Cu	0.77921 0.20236 0.73797 0.86400
Cu	Cu	0.79738 0.12958 0.69438 0.89500
Cu	Cu	0.81749 0.06002 0.74522 0.89300
C 	C 	0.80916 0.06772 0.84915 0.28000
O 	O 	0.85974 0.12567 0.79290 -0.36000
C 	C 	0.79169 0.19769 0.63797 0.27200
O 	O 	0.79030 0.10123 0.75122 -0.64000
O 	O 	0.81357 0.16684 0.74063 -0.64300
O 	O 	0.79474 0.17459 0.84059 -0.37600
O 	O 	0.75427 0.18697 0.79084 -0.43500
O 	O 	0.82490 0.05199 0.81428 -0.38400
O 	O 	0.77967 0.09285 0.65201 -0.38400
C 	C 	0.78945 0.05814 0.64886 0.28000
C 	C 	0.87224 0.11363 0.75316 0.27400
O 	O 	0.85489 0.09641 0.72155 -0.39300
O 	O 	0.79749 0.03922 0.68719 -0.39200
O 	O 	0.80624 0.10420 0.85126 -0.36400
C 	C 	0.76593 0.18561 0.83393 0.28300
O 	O 	0.80044 0.16243 0.63936 -0.38100
O 	O 	0.79278 0.21868 0.67639 -0.41500
H 	H 	0.76814 0.09508 0.75747 0.16200
H 	H 	0.83405 0.17742 0.73150 0.17200
Cu	Cu	0.81376 0.84411 0.18996 0.92800
Cu	Cu	0.77920 0.77836 0.25043 0.86400
Cu	Cu	0.79769 0.85079 0.29452 0.89500
Cu	Cu	0.81793 0.92039 0.24434 0.89300
C 	C 	0.80950 0.91343 0.14029 0.27900
O 	O 	0.85990 0.85516 0.19580 -0.36300
C 	C 	0.79190 0.78256 0.35048 0.27200
O 	O 	0.79052 0.87945 0.23795 -0.64000
O 	O 	0.81370 0.81371 0.24789 -0.64300
O 	O 	0.79477 0.80656 0.14789 -0.37600
O 	O 	0.75431 0.79404 0.19762 -0.43400
O 	O 	0.82533 0.92884 0.17532 -0.38400
O 	O 	0.78012 0.88729 0.33737 -0.38500
C 	C 	0.78983 0.92202 0.34069 0.28000
C 	C 	0.87245 0.86662 0.23582 0.27200
O 	O 	0.85505 0.88344 0.26772 -0.39400
O 	O 	0.79799 0.94103 0.30248 -0.39300
O 	O 	0.80632 0.87699 0.13791 -0.36500
C 	C 	0.76597 0.79549 0.15452 0.28300
O 	O 	0.80103 0.81768 0.34918 -0.38200
O 	O 	0.79267 0.76166 0.31194 -0.41500
H 	H 	0.76837 0.88576 0.23188 0.16200
H 	H 	0.83415 0.80298 0.25686 0.17300
Cu	Cu	0.66255 0.63664 0.68995 0.92800
Cu	Cu	0.69713 0.70237 0.75043 0.86400
Cu	Cu	0.67861 0.62995 0.79451 0.89500
Cu	Cu	0.65835 0.56036 0.74434 0.89300
C 	C 	0.66678 0.56732 0.64028 0.27900
O 	O 	0.61641 0.62561 0.69579 -0.36300
C 	C 	0.68442 0.69818 0.85048 0.27200
O 	O 	0.68577 0.60129 0.73795 -0.64000
O 	O 	0.66262 0.66704 0.74788 -0.64300
O 	O 	0.68156 0.67418 0.64788 -0.37600
O 	O 	0.72201 0.68668 0.69761 -0.43400
O 	O 	0.65095 0.55191 0.67531 -0.38400
O 	O 	0.69617 0.59344 0.83736 -0.38500
C 	C 	0.68644 0.55871 0.84068 0.28000
C 	C 	0.60384 0.61416 0.73581 0.27200
O 	O 	0.62124 0.59733 0.76772 -0.39400
O 	O 	0.67828 0.53971 0.80248 -0.39300
O 	O 	0.66998 0.60375 0.63790 -0.36500
C 	C 	0.71036 0.68524 0.65452 0.28300
O 	O 	0.67528 0.66306 0.84918 -0.38200
O 	O 	0.68366 0.71907 0.81194 -0.41500
H 	H 	0.70792 0.59496 0.73188 0.16200
H 	H 	0.64217 0.67778 0.75685 0.17300
C 	C 	0.69099 0.69017 0.02521 -0.04400
C 	C 	0.70203 0.70421 0.06840 -0.04300
C 	C 	0.71681 0.73904 0.07016 0.01200
C 	C 	0.71956 0.76046 0.02840 -0.00700
C 	C 	0.70843 0.74633 0.98493 -0.01000
C 	C 	0.69456 0.71081 0.98321 0.01500
C 	C 	0.71219 0.76719 0.94294 0.01500
C 	C 	0.72616 0.80250 0.94494 -0.04400
C 	C 	0.73728 0.81648 0.98807 -0.04300
C 	C 	0.73457 0.79534 0.02977 0.01400
C 	C 	0.74782 0.80794 0.07233 -0.02400
C 	C 	0.74658 0.78576 0.11331 -0.06700
C 	C 	0.73007 0.75202 0.11264 -0.02600
C 	C 	0.68534 0.69584 0.93939 -0.02900
C 	C 	0.69021 0.71596 0.89713 -0.06000
C 	C 	0.70294 0.75201 0.89928 -0.03100
H 	H 	0.68009 0.66299 0.02433 0.03600
H 	H 	0.69954 0.68768 0.10033 0.03400
H 	H 	0.72887 0.81890 0.91295 0.03500
H 	H 	0.74850 0.84349 0.98887 0.03700
H 	H 	0.76007 0.83434 0.07324 0.04600
H 	H 	0.72894 0.73509 0.14445 0.02700
H 	H 	0.67509 0.66829 0.93808 0.04800
H 	H 	0.70656 0.76772 0.86691 0.03700
C 	C 	0.75017 0.67824 0.44493 -0.04400
C 	C 	0.73904 0.66425 0.48807 -0.04200
C 	C 	0.74176 0.68538 0.52977 0.01400
C 	C 	0.75677 0.72027 0.52841 -0.00700
C 	C 	0.76790 0.73440 0.48493 -0.01000
C 	C 	0.76414 0.71355 0.44294 0.01500
C 	C 	0.78177 0.76992 0.48322 0.01600
C 	C 	0.78534 0.79056 0.52521 -0.04400
C 	C 	0.77431 0.77652 0.56841 -0.04300
C 	C 	0.75953 0.74168 0.57016 0.01200
C 	C 	0.74626 0.72871 0.61264 -0.02600
C 	C 	0.72975 0.69497 0.61331 -0.06700
C 	C 	0.72850 0.67279 0.57233 -0.02400
C 	C 	0.77338 0.72873 0.39928 -0.03100
C 	C 	0.78612 0.76477 0.39713 -0.06000
C 	C 	0.79099 0.78489 0.43940 -0.02900
H 	H 	0.74745 0.66183 0.41294 0.03500
H 	H 	0.72782 0.63725 0.48886 0.03700
H 	H 	0.79625 0.81774 0.52434 0.03600
H 	H 	0.77679 0.79304 0.60033 0.03400
H 	H 	0.74739 0.74563 0.64445 0.02700
H 	H 	0.71626 0.64639 0.57324 0.04600
H 	H 	0.76977 0.71302 0.36690 0.03700
H 	H 	0.80124 0.81244 0.43808 0.04800
C 	C 	0.78294 0.94058 0.55879 -0.04400
C 	C 	0.78310 0.92149 0.51552 -0.04400
C 	C 	0.78327 0.94120 0.47249 0.01600
C 	C 	0.78269 0.98040 0.47300 -0.01000
C 	C 	0.78266 0.99963 0.51658 -0.01000
C 	C 	0.78304 0.97963 0.55961 0.01500
C 	C 	0.78286 0.03884 0.51708 0.01700
C 	C 	0.78239 0.05854 0.47406 -0.04300
C 	C 	0.78230 0.03945 0.43079 -0.04400
C 	C 	0.78277 0.00040 0.42997 0.01600
C 	C 	0.78395 0.98117 0.38669 -0.02900
C 	C 	0.78551 0.94208 0.38606 -0.05900
C 	C 	0.78469 0.92220 0.42905 -0.03000
C 	C 	0.78413 0.99888 0.60289 -0.02900
C 	C 	0.78529 0.03800 0.60350 -0.05800
C 	C 	0.78420 0.05785 0.56051 -0.03000
H 	H 	0.78305 0.92495 0.59167 0.03600
H 	H 	0.78332 0.89136 0.51551 0.03700
H 	H 	0.78233 0.08867 0.47406 0.03700
H 	H 	0.78218 0.05508 0.39791 0.03600
H 	H 	0.78402 0.99658 0.35361 0.04300
H 	H 	0.78594 0.89208 0.42869 0.04600
H 	H 	0.78444 0.98348 0.63596 0.04300
H 	H 	0.78515 0.08799 0.56085 0.04700
C 	C 	0.79591 0.94572 0.92584 -0.04200
C 	C 	0.79604 0.92387 0.96691 -0.04400
C 	C 	0.79729 0.94068 0.01184 0.01600
C 	C 	0.79708 0.97978 0.01555 -0.00900
C 	C 	0.79695 0.00178 0.97422 -0.00700
C 	C 	0.79702 0.98466 0.92921 0.01300
C 	C 	0.79788 0.04088 0.97790 0.01500
C 	C 	0.79756 0.05771 0.02287 -0.04300
C 	C 	0.79768 0.03585 0.06394 -0.04300
C 	C 	0.79809 0.99689 0.06054 0.01500
C 	C 	0.80057 0.97489 0.10145 -0.02800
C 	C 	0.80269 0.93598 0.09770 -0.05900
C 	C 	0.79990 0.91892 0.05295 -0.02700
C 	C 	0.79932 0.00659 0.88823 -0.02600
C 	C 	0.80222 0.04543 0.89190 -0.06000
C 	C 	0.80032 0.06257 0.93670 -0.02600
H 	H 	0.79551 0.93232 0.89141 0.03500
H 	H 	0.79570 0.89384 0.96370 0.03700
H 	H 	0.79776 0.08773 0.02607 0.03700
H 	H 	0.79801 0.04925 0.09837 0.03600
H 	H 	0.80161 0.98801 0.13607 0.03500
H 	H 	0.80085 0.88888 0.04998 0.04900
H 	H 	0.79967 0.99345 0.85358 0.03400
H 	H 	0.80185 0.09258 0.93961 0.04900
C 	C 	0.69394 0.44128 0.93078 -0.04300
C 	C 	0.69384 0.42219 0.97405 -0.04400
C 	C 	0.69338 0.44190 0.01707 0.01600
C 	C 	0.69360 0.48110 0.01657 -0.00900
C 	C 	0.69357 0.50033 0.97299 -0.00900
C 	C 	0.69348 0.48033 0.92997 0.01500
C 	C 	0.69300 0.53954 0.97249 0.01600
C 	C 	0.69320 0.55924 0.01551 -0.04300
C 	C 	0.69335 0.54016 0.05879 -0.04300
C 	C 	0.69323 0.50110 0.05960 0.01500
C 	C 	0.69213 0.48185 0.10288 -0.02800
C 	C 	0.69096 0.44274 0.10350 -0.05900
C 	C 	0.69204 0.42288 0.06051 -0.02900
C 	C 	0.69230 0.49956 0.88668 -0.02800
C 	C 	0.69076 0.53865 0.88606 -0.05900
C 	C 	0.69159 0.55853 0.92904 -0.02900
H 	H 	0.69405 0.42566 0.89790 0.03600
H 	H 	0.69389 0.39206 0.97406 0.03700
H 	H 	0.69298 0.58937 0.01551 0.03700
H 	H 	0.69325 0.55578 0.09167 0.03600
H 	H 	0.69184 0.49726 0.13595 0.04300
H 	H 	0.69108 0.39274 0.06085 0.04700
H 	H 	0.69223 0.48415 0.85361 0.04300
H 	H 	0.69036 0.58865 0.92868 0.04600
C 	C 	0.67856 0.44489 0.56393 -0.04300
C 	C 	0.67867 0.42303 0.52286 -0.04300
C 	C 	0.67836 0.43986 0.47790 0.01600
C 	C 	0.67931 0.47896 0.47421 -0.00800
C 	C 	0.67919 0.50096 0.51555 -0.00900
C 	C 	0.67816 0.48385 0.56054 0.01500
C 	C 	0.67900 0.54006 0.51184 0.01600
C 	C 	0.68026 0.55687 0.46690 -0.04300
C 	C 	0.68038 0.53502 0.42583 -0.04300
C 	C 	0.67925 0.49608 0.42921 0.01500
C 	C 	0.67694 0.47415 0.38822 -0.02800
C 	C 	0.67402 0.43531 0.39189 -0.05900
C 	C 	0.67592 0.41817 0.43670 -0.02700
C 	C 	0.67569 0.50585 0.60145 -0.02800
C 	C 	0.67359 0.54476 0.59769 -0.05900
C 	C 	0.67639 0.56182 0.55295 -0.02700
H 	H 	0.67823 0.43149 0.59837 0.03600
H 	H 	0.67846 0.39301 0.52607 0.03700
H 	H 	0.68060 0.58689 0.46370 0.03700
H 	H 	0.68078 0.54842 0.39140 0.03500
H 	H 	0.67660 0.48729 0.35358 0.03400
H 	H 	0.67437 0.38816 0.43961 0.04900
H 	H 	0.67465 0.49273 0.63607 0.03500
H 	H 	0.67545 0.59186 0.54998 0.04900
C 	C 	0.73718 0.16467 0.00034 -0.04200
C 	C 	0.72606 0.17867 0.04347 -0.04400
C 	C 	0.71218 0.21403 0.04547 0.01500
C 	C 	0.70848 0.23491 0.00349 -0.01000
C 	C 	0.71958 0.22076 0.96002 -0.00700
C 	C 	0.73450 0.18582 0.95864 0.01400
C 	C 	0.71688 0.24219 0.91827 0.01200
C 	C 	0.70219 0.27708 0.92004 -0.04300
C 	C 	0.69119 0.29115 0.96324 -0.04400
C 	C 	0.69470 0.27049 0.00523 0.01600
C 	C 	0.68551 0.28547 0.04905 -0.02900
C 	C 	0.69031 0.26530 0.09130 -0.06000
C 	C 	0.70295 0.22922 0.08913 -0.03100
C 	C 	0.74773 0.17319 0.91609 -0.02300
C 	C 	0.74654 0.19539 0.87512 -0.06700
C 	C 	0.73012 0.22918 0.87579 -0.02600
H 	H 	0.74835 0.13764 0.99954 0.03700
H 	H 	0.72873 0.16225 0.07545 0.03500
H 	H 	0.69976 0.29363 0.88812 0.03400
H 	H 	0.68037 0.31838 0.96413 0.03700
H 	H 	0.67533 0.31305 0.05039 0.04800
H 	H 	0.70652 0.21347 0.12149 0.03700
H 	H 	0.75993 0.14676 0.91517 0.04600
H 	H 	0.72903 0.24611 0.84398 0.02700
C 	C 	0.73903 0.31606 0.50033 -0.04200
C 	C 	0.75014 0.30206 0.54346 -0.04400
C 	C 	0.76402 0.26671 0.54547 0.01500
C 	C 	0.76772 0.24582 0.50349 -0.01000
C 	C 	0.75662 0.25997 0.46002 -0.00700
C 	C 	0.74170 0.29491 0.45864 0.01400
C 	C 	0.75932 0.23854 0.41827 0.01200
C 	C 	0.77400 0.20364 0.42005 -0.04300
C 	C 	0.78500 0.18957 0.46325 -0.04400
C 	C 	0.78150 0.21024 0.50523 0.01600
C 	C 	0.79068 0.19526 0.54906 -0.02900
C 	C 	0.78589 0.21543 0.59130 -0.06000
C 	C 	0.77326 0.25152 0.58913 -0.03100
C 	C 	0.72847 0.30754 0.41608 -0.02400
C 	C 	0.72966 0.28534 0.37511 -0.06700
C 	C 	0.74608 0.25155 0.37579 -0.02600
H 	H 	0.72786 0.34310 0.49954 0.03700
H 	H 	0.74747 0.31848 0.57545 0.03500
H 	H 	0.77643 0.18709 0.38813 0.03400
H 	H 	0.79582 0.16234 0.46414 0.03700
H 	H 	0.80086 0.16768 0.55039 0.04800
H 	H 	0.76969 0.26726 0.62149 0.03700
H 	H 	0.71627 0.33397 0.41517 0.04600
H 	H 	0.74716 0.23461 0.34399 0.02700
C 	C 	0.97188 0.04622 0.75448 -0.04100
C 	C 	0.00438 0.04623 0.75982 -0.04200
C 	C 	0.02084 0.07995 0.76231 0.01500
C 	C 	0.00448 0.11392 0.75957 -0.00700
C 	C 	0.97174 0.11391 0.75466 -0.00700
C 	C 	0.95540 0.07993 0.75196 0.01500
C 	C 	0.95532 0.14788 0.75288 0.01500
C 	C 	0.97180 0.18160 0.75508 -0.04200
C 	C 	0.00439 0.18161 0.75908 -0.04200
C 	C 	0.02089 0.14790 0.76131 0.01600
C 	C 	0.05361 0.14772 0.76434 -0.02400
C 	C 	0.06992 0.11391 0.76621 -0.06100
C 	C 	0.05350 0.08013 0.76633 -0.02300
C 	C 	0.92274 0.08008 0.74794 -0.02300
C 	C 	0.90630 0.11385 0.74802 -0.06100
C 	C 	0.92260 0.14767 0.74986 -0.02400
H 	H 	0.95952 0.01997 0.75255 0.03800
H 	H 	0.01674 0.01999 0.76178 0.03800
H 	H 	0.95940 0.20784 0.75368 0.03700
H 	H 	0.01678 0.20786 0.76044 0.03700
H 	H 	0.06642 0.17374 0.76419 0.03300
H 	H 	0.06625 0.05408 0.76749 0.03400
H 	H 	0.91000 0.05402 0.74680 0.03400
H 	H 	0.90977 0.17368 0.74997 0.03300
C 	C 	0.47188 0.43464 0.25974 -0.04200
C 	C 	0.50438 0.43463 0.25439 -0.04200
C 	C 	0.52084 0.40091 0.25191 0.01500
C 	C 	0.50448 0.36694 0.25466 -0.00700
C 	C 	0.47174 0.36695 0.25956 -0.00700
C 	C 	0.45540 0.40094 0.26226 0.01500
C 	C 	0.45532 0.33298 0.26134 0.01500
C 	C 	0.47180 0.29926 0.25915 -0.04200
C 	C 	0.50439 0.29925 0.25516 -0.04200
C 	C 	0.52089 0.33296 0.25291 0.01500
C 	C 	0.55361 0.33314 0.24989 -0.02400
C 	C 	0.56993 0.36695 0.24801 -0.06100
C 	C 	0.55350 0.40073 0.24789 -0.02300
C 	C 	0.42274 0.40078 0.26628 -0.02300
C 	C 	0.40630 0.36702 0.26621 -0.06100
C 	C 	0.42260 0.33319 0.26437 -0.02400
H 	H 	0.45953 0.46089 0.26166 0.03800
H 	H 	0.51674 0.46087 0.25243 0.03800
H 	H 	0.45940 0.27302 0.26055 0.03700
H 	H 	0.51678 0.27300 0.25379 0.03700
H 	H 	0.56642 0.30712 0.25004 0.03300
H 	H 	0.56625 0.42678 0.24672 0.03400
H 	H 	0.41001 0.42684 0.26741 0.03400
H 	H 	0.40977 0.30718 0.26425 0.03300
C 	C 	0.23903 0.16480 0.51389 -0.04200
C 	C 	0.25014 0.17880 0.47076 -0.04400
C 	C 	0.26403 0.21415 0.46875 0.01500
C 	C 	0.26772 0.23504 0.51073 -0.01000
C 	C 	0.25662 0.22089 0.55420 -0.00700
C 	C 	0.24170 0.18595 0.55558 0.01400
C 	C 	0.25932 0.24232 0.59595 0.01200
C 	C 	0.27400 0.27722 0.59417 -0.04300
C 	C 	0.28500 0.29129 0.55097 -0.04400
C 	C 	0.28150 0.27062 0.50899 0.01600
C 	C 	0.29069 0.28560 0.46516 -0.02900
C 	C 	0.28589 0.26543 0.42292 -0.06000
C 	C 	0.27326 0.22934 0.42509 -0.03100
C 	C 	0.22847 0.17332 0.59814 -0.02400
C 	C 	0.22966 0.19552 0.63911 -0.06700
C 	C 	0.24608 0.22931 0.63843 -0.02600
H 	H 	0.22786 0.13776 0.51468 0.03700
H 	H 	0.24747 0.16238 0.43877 0.03500
H 	H 	0.27643 0.29377 0.62609 0.03400
H 	H 	0.29582 0.31852 0.55008 0.03700
H 	H 	0.30086 0.31318 0.46382 0.04800
H 	H 	0.26969 0.21360 0.39273 0.03700
H 	H 	0.21628 0.14689 0.59905 0.04600
H 	H 	0.24716 0.24625 0.67023 0.02700
C 	C 	0.19119 0.18970 0.05098 -0.04400
C 	C 	0.20219 0.20378 0.09418 -0.04300
C 	C 	0.21688 0.23867 0.09595 0.01200
C 	C 	0.21958 0.26010 0.05420 -0.00700
C 	C 	0.20848 0.24595 0.01073 -0.01000
C 	C 	0.19470 0.21037 0.00900 0.01600
C 	C 	0.21218 0.26683 0.96875 0.01500
C 	C 	0.22606 0.30218 0.97075 -0.04500
C 	C 	0.23718 0.31619 0.01388 -0.04200
C 	C 	0.23451 0.29504 0.05558 0.01400
C 	C 	0.24773 0.30767 0.09813 -0.02400
C 	C 	0.24654 0.28547 0.13910 -0.06700
C 	C 	0.23012 0.25168 0.13843 -0.02600
C 	C 	0.18551 0.19539 0.96517 -0.02900
C 	C 	0.19031 0.21555 0.92292 -0.06000
C 	C 	0.20295 0.25164 0.92509 -0.03100
H 	H 	0.18037 0.16248 0.05009 0.03700
H 	H 	0.19976 0.18723 0.12610 0.03400
H 	H 	0.22873 0.31861 0.93877 0.03500
H 	H 	0.24835 0.34322 0.01468 0.03700
H 	H 	0.25993 0.33410 0.09905 0.04600
H 	H 	0.22903 0.23474 0.17024 0.02700
H 	H 	0.17533 0.16781 0.96383 0.04800
H 	H 	0.20652 0.26738 0.89273 0.03700
C 	C 	0.49759 0.61779 0.66839 -0.04300
C 	C 	0.46513 0.61775 0.67428 -0.04300
C 	C 	0.45207 0.61759 0.71998 0.01600
C 	C 	0.47181 0.61780 0.76007 -0.00900
C 	C 	0.50449 0.61778 0.75413 -0.00900
C 	C 	0.51740 0.61765 0.70813 0.01600
C 	C 	0.52424 0.61756 0.79423 0.01600
C 	C 	0.51117 0.61774 0.83993 -0.04300
C 	C 	0.47871 0.61780 0.84582 -0.04300
C 	C 	0.45890 0.61767 0.80608 0.01600
C 	C 	0.42638 0.61703 0.81182 -0.02900
C 	C 	0.40661 0.61637 0.77194 -0.06100
C 	C 	0.41953 0.61692 0.72609 -0.03000
C 	C 	0.54992 0.61697 0.70239 -0.02900
C 	C 	0.56969 0.61630 0.74227 -0.06100
C 	C 	0.55677 0.61687 0.78812 -0.03000
H 	H 	0.50730 0.61777 0.63288 0.04000
H 	H 	0.45018 0.61770 0.64325 0.03900
H 	H 	0.52612 0.61769 0.87096 0.03900
H 	H 	0.46900 0.61780 0.88133 0.04000
H 	H 	0.41644 0.61639 0.84722 0.04900
H 	H 	0.40429 0.61683 0.69534 0.04200
H 	H 	0.55986 0.61632 0.66699 0.04900
H 	H 	0.57201 0.61678 0.81887 0.04200
C 	C 	0.28239 0.42232 0.54016 -0.04300
C 	C 	0.28230 0.44141 0.58343 -0.04300
C 	C 	0.28277 0.48046 0.58425 0.01500
C 	C 	0.28269 0.50046 0.54122 -0.00900
C 	C 	0.28266 0.48123 0.49764 -0.00900
C 	C 	0.28286 0.44202 0.49714 0.01600
C 	C 	0.28304 0.50123 0.45461 0.01500
C 	C 	0.28294 0.54028 0.45543 -0.04300
C 	C 	0.28309 0.55937 0.49870 -0.04300
C 	C 	0.28327 0.53966 0.54173 0.01600
C 	C 	0.28469 0.55866 0.58518 -0.02900
C 	C 	0.28551 0.53878 0.62816 -0.05900
C 	C 	0.28395 0.49969 0.62753 -0.02800
C 	C 	0.28420 0.42301 0.45370 -0.02900
C 	C 	0.28529 0.44286 0.41072 -0.05900
C 	C 	0.28413 0.48198 0.41133 -0.02800
H 	H 	0.28233 0.39219 0.54016 0.03700
H 	H 	0.28218 0.42578 0.61631 0.03600
H 	H 	0.28305 0.55591 0.42255 0.03600
H 	H 	0.28332 0.58950 0.49871 0.03700
H 	H 	0.28594 0.58878 0.58553 0.04600
H 	H 	0.28402 0.48428 0.66060 0.04300
H 	H 	0.28515 0.39287 0.45337 0.04700
H 	H 	0.28444 0.49739 0.37826 0.04300
C 	C 	0.29591 0.53514 0.08838 -0.04300
C 	C 	0.29604 0.55700 0.04732 -0.04400
C 	C 	0.29729 0.54018 0.00238 0.01600
C 	C 	0.29708 0.50108 0.99867 -0.00900
C 	C 	0.29696 0.47908 0.04001 -0.00800
C 	C 	0.29702 0.49620 0.08501 0.01500
C 	C 	0.29789 0.43999 0.03632 0.01600
C 	C 	0.29757 0.42315 0.99135 -0.04300
C 	C 	0.29768 0.44501 0.95028 -0.04300
C 	C 	0.29809 0.48397 0.95368 0.01500
C 	C 	0.30057 0.50597 0.91277 -0.02800
C 	C 	0.30269 0.54488 0.91652 -0.05900
C 	C 	0.29990 0.56194 0.96127 -0.02700
C 	C 	0.29932 0.47427 0.12599 -0.02800
C 	C 	0.30222 0.43543 0.12232 -0.05900
C 	C 	0.30032 0.41829 0.07752 -0.02700
H 	H 	0.29551 0.54854 0.12282 0.03500
H 	H 	0.29570 0.58702 0.05052 0.03700
H 	H 	0.29777 0.39313 0.98815 0.03700
H 	H 	0.29801 0.43161 0.91585 0.03600
H 	H 	0.30161 0.49285 0.87815 0.03500
H 	H 	0.30085 0.59198 0.96424 0.04900
H 	H 	0.29967 0.48741 0.16064 0.03400
H 	H 	0.30186 0.38828 0.07461 0.04900
C 	C 	0.01117 0.86312 0.17429 -0.04300
C 	C 	0.97871 0.86306 0.16840 -0.04300
C 	C 	0.95890 0.86319 0.20814 0.01600
C 	C 	0.97181 0.86307 0.25415 -0.00900
C 	C 	0.00449 0.86308 0.26008 -0.00900
C 	C 	0.02424 0.86330 0.21999 0.01600
C 	C 	0.01740 0.86321 0.30609 0.01600
C 	C 	0.99759 0.86307 0.34583 -0.04300
C 	C 	0.96513 0.86311 0.33994 -0.04300
C 	C 	0.95207 0.86328 0.29424 0.01600
C 	C 	0.91953 0.86394 0.28813 -0.03000
C 	C 	0.90662 0.86450 0.24228 -0.06100
C 	C 	0.92638 0.86384 0.20240 -0.02900
C 	C 	0.05678 0.86399 0.22610 -0.03000
C 	C 	0.06969 0.86456 0.27195 -0.06100
C 	C 	0.04992 0.86388 0.31183 -0.02900
H 	H 	0.02612 0.86317 0.14326 0.03900
H 	H 	0.96900 0.86306 0.13289 0.04000
H 	H 	0.00730 0.86308 0.38134 0.04000
H 	H 	0.95018 0.86316 0.37097 0.03900
H 	H 	0.90429 0.86403 0.31888 0.04200
H 	H 	0.91644 0.86448 0.16700 0.04900
H 	H 	0.07201 0.86408 0.19535 0.04200
H 	H 	0.05986 0.86453 0.34723 0.04900
C 	C 	0.19385 0.05867 0.04017 -0.04300
C 	C 	0.19394 0.03958 0.08344 -0.04400
C 	C 	0.19348 0.00053 0.08425 0.01600
C 	C 	0.19357 0.98053 0.04123 -0.01000
C 	C 	0.19360 0.99975 0.99765 -0.01000
C 	C 	0.19338 0.03896 0.99715 0.01600
C 	C 	0.19323 0.97976 0.95462 0.01500
C 	C 	0.19335 0.94070 0.95543 -0.04300
C 	C 	0.19319 0.92161 0.99871 -0.04400
C 	C 	0.19301 0.94132 0.04173 0.01600
C 	C 	0.19159 0.92233 0.08518 -0.03000
C 	C 	0.19077 0.94220 0.12817 -0.05900
C 	C 	0.19231 0.98130 0.12754 -0.02900
C 	C 	0.19204 0.05798 0.95371 -0.03000
C 	C 	0.19096 0.03812 0.91072 -0.05800
C 	C 	0.19213 0.99900 0.91134 -0.02900
H 	H 	0.19389 0.08880 0.04016 0.03700
H 	H 	0.19405 0.05520 0.11632 0.03600
H 	H 	0.19325 0.92508 0.92256 0.03600
H 	H 	0.19298 0.89149 0.99871 0.03700
H 	H 	0.19036 0.89220 0.08554 0.04600
H 	H 	0.19223 0.99671 0.16061 0.04300
H 	H 	0.19108 0.08811 0.95337 0.04700
H 	H 	0.19184 0.98360 0.87827 0.04300
C 	C 	0.17867 0.05783 0.49136 -0.04300
C 	C 	0.17856 0.03597 0.45029 -0.04300
C 	C 	0.17816 0.99701 0.45368 0.01500
C 	C 	0.17919 0.97990 0.49867 -0.00900
C 	C 	0.17930 0.00190 0.54001 -0.00700
C 	C 	0.17836 0.04099 0.53633 0.01500
C 	C 	0.17924 0.98478 0.58501 0.01300
C 	C 	0.18037 0.94584 0.58839 -0.04200
C 	C 	0.18025 0.92398 0.54732 -0.04400
C 	C 	0.17899 0.94080 0.50238 0.01600
C 	C 	0.17638 0.91904 0.46127 -0.02700
C 	C 	0.17359 0.93610 0.41653 -0.05900
C 	C 	0.17569 0.97501 0.41277 -0.02800
C 	C 	0.17592 0.06269 0.57753 -0.02600
C 	C 	0.17402 0.04555 0.62233 -0.06000
C 	C 	0.17694 0.00671 0.62600 -0.02600
H 	H 	0.17846 0.08785 0.48816 0.03700
H 	H 	0.17823 0.04937 0.41585 0.03600
H 	H 	0.18078 0.93244 0.62282 0.03500
H 	H 	0.18060 0.89396 0.55053 0.03700
H 	H 	0.17545 0.88900 0.46424 0.04900
H 	H 	0.17465 0.98813 0.37815 0.03500
H 	H 	0.17437 0.09269 0.57461 0.04900
H 	H 	0.17660 0.99357 0.66064 0.03400
C 	C 	0.23904 0.81660 0.52615 -0.04200
C 	C 	0.25016 0.80262 0.56929 -0.04400
C 	C 	0.26413 0.76731 0.57128 0.01500
C 	C 	0.26790 0.74646 0.52929 -0.01000
C 	C 	0.25676 0.76059 0.48582 -0.00700
C 	C 	0.24175 0.79547 0.48445 0.01400
C 	C 	0.25953 0.73918 0.44406 0.01200
C 	C 	0.27430 0.70434 0.44581 -0.04300
C 	C 	0.28534 0.69030 0.48901 -0.04400
C 	C 	0.28177 0.71094 0.53100 0.01600
C 	C 	0.29099 0.69597 0.57482 -0.02900
C 	C 	0.28611 0.71609 0.61709 -0.06000
C 	C 	0.27338 0.75213 0.61494 -0.03100
C 	C 	0.22850 0.80807 0.44189 -0.02400
C 	C 	0.22975 0.78589 0.40091 -0.06700
C 	C 	0.24626 0.75215 0.40158 -0.02600
H 	H 	0.22782 0.84361 0.52536 0.03700
H 	H 	0.24745 0.81902 0.60128 0.03500
H 	H 	0.27679 0.68782 0.41389 0.03400
H 	H 	0.29624 0.66312 0.48988 0.03600
H 	H 	0.30123 0.66842 0.57614 0.04800
H 	H 	0.26976 0.76784 0.64732 0.03700
H 	H 	0.21625 0.83447 0.44098 0.04600
H 	H 	0.24739 0.73523 0.36977 0.02700
C 	C 	0.20203 0.77665 0.94582 -0.04300
C 	C 	0.19099 0.79069 0.98901 -0.04400
C 	C 	0.19456 0.77005 0.03101 0.01600
C 	C 	0.20843 0.73453 0.02929 -0.01000
C 	C 	0.21956 0.72040 0.98582 -0.00800
C 	C 	0.21680 0.74181 0.94406 0.01200
C 	C 	0.23457 0.68551 0.98445 0.01400
C 	C 	0.23728 0.66438 0.02615 -0.04200
C 	C 	0.22615 0.67836 0.06928 -0.04400
C 	C 	0.21219 0.71367 0.07128 0.01500
C 	C 	0.20294 0.72885 0.11494 -0.03100
C 	C 	0.19021 0.76490 0.11709 -0.06000
C 	C 	0.18534 0.78501 0.07483 -0.02900
C 	C 	0.23007 0.72884 0.90158 -0.02600
C 	C 	0.24658 0.69510 0.90091 -0.06700
C 	C 	0.24782 0.67292 0.94189 -0.02300
H 	H 	0.19954 0.79318 0.91389 0.03400
H 	H 	0.18009 0.81787 0.98989 0.03600
H 	H 	0.24850 0.63737 0.02536 0.03700
H 	H 	0.22887 0.66196 0.10127 0.03500
H 	H 	0.20655 0.71314 0.14731 0.03700
H 	H 	0.17509 0.81256 0.07614 0.04800
H 	H 	0.22894 0.74577 0.86977 0.02700
H 	H 	0.26007 0.64652 0.94098 0.04600
