data_crystal

_cell_length_a 31.25935
_cell_length_b 30.50097
_cell_length_c 29.68953
_cell_angle_alpha 90.02496
_cell_angle_beta  89.10706
_cell_angle_gamma 90.54291

_symmetry_space_group_name_	'P 1'
_symmetry_space_group_name_H-M	'P 1'

loop_
_symmetry_equiv_pos_as_xyz
  x,y,z

loop_
_atom_site_label
_atom_site_type_symbol
_atom_site_fract_x
_atom_site_fract_y
_atom_site_fract_z
_atom_site_charge
C 	C 	0.08372 0.02830 0.09243 0.33200
C 	C 	0.96100 0.09360 0.96021 0.35100
C 	C 	0.01811 0.96915 0.00480 0.36100
C 	C 	0.02497 0.16334 0.03338 0.32800
C 	C 	0.07061 0.03642 0.89676 0.35300
C 	C 	0.14812 0.10423 0.97457 0.32600
Ni	Ni	0.01024 0.06189 0.03811 1.11200
Ni	Ni	0.05462 0.11306 0.95354 1.12300
Ni	Ni	0.09576 0.02443 0.98995 1.12100
O 	O 	0.05261 0.05774 0.09101 -0.38700
O 	O 	0.09548 0.00517 0.05618 -0.39100
O 	O 	0.04550 0.07030 0.90301 -0.39800
O 	O 	0.96980 0.05858 0.98369 -0.39500
O 	O 	0.99035 0.12413 0.95349 -0.39100
O 	O 	0.14511 0.06657 0.99730 -0.39100
O 	O 	0.00973 0.99359 0.04022 -0.38700
O 	O 	0.04842 0.98078 0.97584 -0.39500
O 	O 	0.11934 0.11496 0.94390 -0.38800
O 	O 	0.99958 0.12978 0.04602 -0.37900
O 	O 	0.05611 0.15888 0.00263 -0.39300
O 	O 	0.10340 0.03042 0.92300 -0.40300
O 	O 	0.05811 0.07163 0.00133 -0.72200
H 	H 	0.07583 0.08842 0.02251 0.15900
C 	C 	0.10921 0.80542 0.52666 0.32600
C 	C 	0.00813 0.96105 0.48960 0.35600
C 	C 	0.04342 0.88795 0.59907 0.34600
C 	C 	0.06803 0.89897 0.40116 0.35400
C 	C 	0.92669 0.85137 0.52253 0.35100
C 	C 	0.99405 0.77396 0.45218 0.32600
Ni	Ni	0.07773 0.89575 0.50535 1.11600
Ni	Ni	0.98987 0.87292 0.45246 1.12200
Ni	Ni	0.01396 0.81675 0.53899 1.12200
O 	O 	0.11760 0.84161 0.50297 -0.37800
O 	O 	0.07594 0.80341 0.55507 -0.38400
O 	O 	0.94448 0.88355 0.49938 -0.40600
O 	O 	0.03955 0.95021 0.51618 -0.38800
O 	O 	0.00113 0.93871 0.45255 -0.40100
O 	O 	0.01285 0.76946 0.49193 -0.39400
O 	O 	0.07858 0.88755 0.57454 -0.38700
O 	O 	0.01042 0.86318 0.58811 -0.39100
O 	O 	0.97109 0.80936 0.44242 -0.39200
O 	O 	0.08854 0.91309 0.43758 -0.38400
O 	O 	0.03588 0.87013 0.40387 -0.40100
O 	O 	0.94941 0.81767 0.53555 -0.39500
O 	O 	0.03249 0.85693 0.49333 -0.71900
H 	H 	0.04834 0.83665 0.47358 0.15300
C 	C 	0.92359 0.65799 0.96227 0.32600
C 	C 	0.87377 0.52239 0.09361 0.34600
C 	C 	0.98865 0.57432 0.01998 0.35200
C 	C 	0.79986 0.60406 0.03694 0.34400
C 	C 	0.91324 0.46651 0.97466 0.35200
C 	C 	0.84790 0.54107 0.89835 0.32900
Ni	Ni	0.89912 0.60368 0.04355 1.11400
Ni	Ni	0.84257 0.52472 0.00004 1.12200
Ni	Ni	0.92676 0.55844 0.94902 1.12100
O 	O 	0.89991 0.65671 0.99992 -0.38300
O 	O 	0.94593 0.62326 0.94811 -0.38700
O 	O 	0.88208 0.47335 0.00401 -0.40100
O 	O 	0.90536 0.55029 0.08621 -0.38700
O 	O 	0.83958 0.52328 0.06848 -0.39200
O 	O 	0.88198 0.56726 0.90224 -0.39800
O 	O 	0.96593 0.60682 0.03650 -0.38200
O 	O 	0.97029 0.54369 0.99615 -0.40400
O 	O 	0.83320 0.51621 0.93251 -0.38700
O 	O 	0.83414 0.61059 0.06261 -0.38000
O 	O 	0.79927 0.57346 0.00479 -0.39300
O 	O 	0.91933 0.49334 0.94053 -0.40300
O 	O 	0.88432 0.56986 0.99318 -0.72100
H 	H 	0.86730 0.59131 0.97655 0.16000
C 	C 	0.88809 0.41333 0.59692 0.32600
C 	C 	0.98735 0.33456 0.44871 0.37200
C 	C 	0.94090 0.46324 0.49103 0.35000
C 	C 	0.93568 0.27418 0.54295 0.32800
C 	C 	0.86856 0.38591 0.40322 0.34900
C 	C 	0.80460 0.33250 0.50340 0.32500
Ni	Ni	0.95261 0.37462 0.53241 1.11400
Ni	Ni	0.89408 0.31643 0.46526 1.12100
Ni	Ni	0.86156 0.41008 0.49864 1.12200
O 	O 	0.92010 0.38516 0.59290 -0.38300
O 	O 	0.87383 0.43542 0.56136 -0.38300
O 	O 	0.89495 0.35315 0.40915 -0.39800
O 	O 	0.98268 0.37185 0.47002 -0.39800
O 	O 	0.95747 0.30391 0.45224 -0.39500
O 	O 	0.81386 0.37126 0.52158 -0.39600
O 	O 	0.95424 0.44272 0.52694 -0.38600
O 	O 	0.90704 0.44902 0.46966 -0.39800
O 	O 	0.82854 0.31537 0.47003 -0.38500
O 	O 	0.96382 0.30747 0.54422 -0.38100
O 	O 	0.90039 0.27584 0.51847 -0.39200
O 	O 	0.84186 0.39756 0.43559 -0.39900
O 	O 	0.89924 0.36274 0.50774 -0.72000
H 	H 	0.88500 0.34889 0.53399 0.15900
C 	C 	0.57112 0.01662 0.10281 0.31700
C 	C 	0.45829 0.08670 0.96468 0.35000
C 	C 	0.51736 0.96252 0.00211 0.35000
C 	C 	0.51230 0.15124 0.05387 0.32700
C 	C 	0.57651 0.04365 0.90758 0.35000
C 	C 	0.64330 0.10395 0.99779 0.32900
Ni	Ni	0.50078 0.05007 0.04421 1.11100
Ni	Ni	0.55017 0.11196 0.97127 1.12300
Ni	Ni	0.59231 0.02216 0.00193 1.11800
O 	O 	0.53728 0.04269 0.10134 -0.38400
O 	O 	0.58620 0.99642 0.06592 -0.37700
O 	O 	0.54786 0.07399 0.91605 -0.39800
O 	O 	0.46721 0.04992 0.98472 -0.39800
O 	O 	0.48557 0.11974 0.96595 -0.39000
O 	O 	0.63787 0.06567 0.01891 -0.39700
O 	O 	0.50415 0.98199 0.03919 -0.38200
O 	O 	0.54819 0.97982 0.97747 -0.39500
O 	O 	0.61522 0.11840 0.96785 -0.38900
O 	O 	0.48590 0.11649 0.05701 -0.38000
O 	O 	0.54513 0.15247 0.02475 -0.39200
O 	O 	0.60646 0.03539 0.93688 -0.40300
O 	O 	0.55166 0.06618 0.01473 -0.72200
H 	H 	0.56636 0.08134 0.03947 0.16200
C 	C 	0.46478 0.76190 0.48795 0.32500
C 	C 	0.54421 0.89119 0.60676 0.35200
C 	C 	0.41900 0.81984 0.56246 0.37100
C 	C 	0.60562 0.83554 0.51185 0.32900
C 	C 	0.45876 0.94996 0.52095 0.34300
C 	C 	0.51379 0.89918 0.41314 0.32900
Ni	Ni	0.51551 0.81293 0.55424 1.11300
Ni	Ni	0.54151 0.90644 0.50925 1.12100
Ni	Ni	0.45367 0.86161 0.48077 1.12000
O 	O 	0.50328 0.76562 0.50595 -0.38400
O 	O 	0.44617 0.79565 0.46759 -0.38600
O 	O 	0.49652 0.94385 0.53873 -0.39800
O 	O 	0.51812 0.85733 0.60733 -0.38600
O 	O 	0.56759 0.89953 0.57086 -0.40000
O 	O 	0.48183 0.87082 0.41996 -0.38800
O 	O 	0.45286 0.79828 0.57529 -0.39300
O 	O 	0.42335 0.85724 0.54113 -0.41000
O 	O 	0.52670 0.92574 0.44589 -0.39100
O 	O 	0.58274 0.81506 0.54429 -0.37500
O 	O 	0.58973 0.86805 0.48750 -0.39200
O 	O 	0.44709 0.92727 0.48543 -0.39500
O 	O 	0.50784 0.85405 0.50765 -0.71600
H 	H 	0.52166 0.83822 0.48245 0.16000
C 	C 	0.49549 0.57513 0.04152 0.32800
C 	C 	0.37815 0.53010 0.89635 0.34600
C 	C 	0.43508 0.64747 0.96507 0.34900
C 	C 	0.42941 0.45454 0.98183 0.32400
C 	C 	0.30957 0.59540 0.01180 0.34700
C 	C 	0.36944 0.52116 0.09384 0.34100
Ni	Ni	0.44888 0.55008 0.95765 1.11300
Ni	Ni	0.35613 0.51452 0.99382 1.12100
Ni	Ni	0.40013 0.59725 0.04123 1.12100
O 	O 	0.49301 0.54575 0.00874 -0.38900
O 	O 	0.46532 0.60543 0.04780 -0.38600
O 	O 	0.31933 0.56642 0.98052 -0.39700
O 	O 	0.40320 0.56174 0.90975 -0.39300
O 	O 	0.36127 0.50239 0.92591 -0.38300
O 	O 	0.39497 0.55647 0.09413 -0.39500
O 	O 	0.46364 0.61699 0.95694 -0.38500
O 	O 	0.39977 0.63783 0.98749 -0.39600
O 	O 	0.34117 0.51488 0.06111 -0.39300
O 	O 	0.44374 0.48163 0.94968 -0.38200
O 	O 	0.39081 0.45943 0.00056 -0.38800
O 	O 	0.33580 0.60309 0.04523 -0.39400
O 	O 	0.40733 0.54738 0.00363 -0.71500
H 	H 	0.42170 0.52782 0.02484 0.15500
C 	C 	0.42573 0.37350 0.39572 0.32400
C 	C 	0.42550 0.37491 0.59572 0.34900
C 	C 	0.49145 0.30396 0.47789 0.34500
C 	C 	0.37129 0.44612 0.51963 0.34600
C 	C 	0.37871 0.25366 0.53902 0.35000
C 	C 	0.30495 0.32050 0.45995 0.32400
Ni	Ni	0.44404 0.38651 0.49601 1.11300
Ni	Ni	0.35559 0.34736 0.53865 1.12000
Ni	Ni	0.39929 0.29927 0.45450 1.12200
O 	O 	0.45564 0.38201 0.42612 -0.37800
O 	O 	0.39999 0.33857 0.39960 -0.38700
O 	O 	0.34703 0.28158 0.54367 -0.39600
O 	O 	0.44239 0.40142 0.56513 -0.38400
O 	O 	0.40311 0.34085 0.58324 -0.40400
O 	O 	0.33447 0.28977 0.45286 -0.38900
O 	O 	0.48391 0.33406 0.50854 -0.38700
O 	O 	0.46407 0.29729 0.44532 -0.38700
O 	O 	0.30764 0.34848 0.49431 -0.39300
O 	O 	0.40198 0.43784 0.48948 -0.39400
O 	O 	0.35558 0.41489 0.54739 -0.39000
O 	O 	0.40719 0.25842 0.50635 -0.40000
O 	O 	0.39504 0.35114 0.48981 -0.71700
H 	H 	0.37795 0.36910 0.46937 0.15900
C 	C 	0.41432 0.44232 0.70129 0.00400
C 	C 	0.43925 0.47021 0.72796 -0.03900
C 	C 	0.42476 0.48249 0.77096 -0.03800
C 	C 	0.38460 0.46779 0.78729 0.00500
C 	C 	0.35956 0.44012 0.76048 -0.04000
C 	C 	0.37408 0.42780 0.71751 -0.03700
C 	C 	0.36981 0.47926 0.83350 0.01500
C 	C 	0.37541 0.52190 0.85018 -0.17400
C 	C 	0.42979 0.42941 0.65578 0.01600
C 	C 	0.42629 0.38576 0.64140 -0.17700
H 	H 	0.47015 0.48182 0.71570 0.03800
H 	H 	0.44499 0.50287 0.79178 0.03900
H 	H 	0.32872 0.42838 0.77278 0.03900
H 	H 	0.35399 0.40718 0.69676 0.03900
H 	H 	0.35607 0.45376 0.85497 0.04000
H 	H 	0.38537 0.54771 0.82694 0.08500
H 	H 	0.44262 0.45442 0.63313 0.03700
H 	H 	0.41663 0.36084 0.66579 0.08500
C 	C 	0.39491 0.41772 0.28150 0.00900
C 	C 	0.39394 0.39869 0.23851 -0.04200
C 	C 	0.39299 0.42525 0.20016 -0.03500
C 	C 	0.39210 0.47110 0.20462 -0.00100
C 	C 	0.39227 0.49004 0.24765 -0.03600
C 	C 	0.39327 0.46351 0.28594 -0.04100
C 	C 	0.39511 0.49960 0.16451 0.02900
C 	C 	0.36803 0.49438 0.12985 -0.19200
C 	C 	0.39635 0.38951 0.32182 0.01000
C 	C 	0.42537 0.39844 0.35631 -0.16200
H 	H 	0.39477 0.36337 0.23477 0.03900
H 	H 	0.39381 0.41028 0.16706 0.03700
H 	H 	0.39179 0.52537 0.25141 0.03900
H 	H 	0.39277 0.47852 0.31902 0.04100
H 	H 	0.41819 0.52652 0.16466 0.03700
H 	H 	0.34466 0.46772 0.13079 0.09000
H 	H 	0.37605 0.36040 0.32335 0.04100
H 	H 	0.44776 0.42575 0.35266 0.08200
C 	C 	0.42849 0.64603 0.51902 0.00700
C 	C 	0.38589 0.64264 0.50452 -0.03900
C 	C 	0.36597 0.60142 0.50126 -0.03700
C 	C 	0.38766 0.56353 0.51430 -0.00000
C 	C 	0.42855 0.56750 0.53286 -0.03500
C 	C 	0.44891 0.60849 0.53502 -0.04100
C 	C 	0.37274 0.52020 0.49848 0.03000
C 	C 	0.36146 0.48828 0.52797 -0.19400
C 	C 	0.45167 0.68886 0.51910 0.01100
C 	C 	0.44497 0.72069 0.48576 -0.16300
H 	H 	0.36832 0.67168 0.49550 0.03800
H 	H 	0.33423 0.59883 0.48730 0.03800
H 	H 	0.44557 0.53848 0.54316 0.04100
H 	H 	0.48112 0.61082 0.54784 0.03900
H 	H 	0.37805 0.51216 0.46313 0.03300
H 	H 	0.34722 0.49706 0.56035 0.09200
H 	H 	0.47549 0.69479 0.54476 0.03200
H 	H 	0.42060 0.71520 0.46066 0.08200
C 	C 	0.41631 0.14460 0.58157 0.00400
C 	C 	0.38519 0.11578 0.56439 -0.03600
C 	C 	0.39179 0.07045 0.56533 -0.04200
C 	C 	0.43009 0.05374 0.58234 0.01300
C 	C 	0.45878 0.08218 0.60377 -0.04200
C 	C 	0.45196 0.12739 0.60333 -0.03800
C 	C 	0.44183 0.00719 0.57567 -0.00900
C 	C 	0.43421 0.98572 0.53465 -0.15300
C 	C 	0.41708 0.19124 0.56806 0.01700
C 	C 	0.37965 0.21610 0.56585 -0.17300
H 	H 	0.35712 0.12848 0.54812 0.04100
H 	H 	0.36773 0.04859 0.55178 0.03800
H 	H 	0.48758 0.06950 0.61866 0.03700
H 	H 	0.47575 0.14923 0.61750 0.03800
H 	H 	0.46232 0.99187 0.60029 0.05000
H 	H 	0.40942 0.99745 0.51259 0.08500
H 	H 	0.44753 0.20592 0.55771 0.04100
H 	H 	0.35129 0.20614 0.58501 0.08500
C 	C 	0.42971 0.76978 0.97480 0.00700
C 	C 	0.46690 0.78814 0.95511 -0.03800
C 	C 	0.48212 0.82879 0.96965 -0.03700
C 	C 	0.45829 0.85348 0.00110 0.00500
C 	C 	0.42026 0.83589 0.01942 -0.03800
C 	C 	0.40605 0.79424 0.00637 -0.04000
C 	C 	0.47374 0.89707 0.01623 0.01600
C 	C 	0.49721 0.92453 0.98699 -0.17300
C 	C 	0.41569 0.72461 0.96362 0.01400
C 	C 	0.44551 0.69112 0.95606 -0.17500
H 	H 	0.48413 0.77102 0.92867 0.03900
H 	H 	0.51266 0.84075 0.95684 0.03900
H 	H 	0.40179 0.85439 0.04393 0.03900
H 	H 	0.37700 0.78069 0.02135 0.03900
H 	H 	0.46641 0.90772 0.05042 0.03800
H 	H 	0.50246 0.91468 0.95219 0.08700
H 	H 	0.38197 0.71619 0.96775 0.04000
H 	H 	0.47816 0.69925 0.94604 0.08500
C 	C 	0.50445 0.26997 0.05940 0.00900
C 	C 	0.50360 0.28441 0.01461 -0.03900
C 	C 	0.48316 0.32345 0.00382 -0.03900
C 	C 	0.46443 0.34912 0.03801 0.00700
C 	C 	0.46566 0.33473 0.08292 -0.03900
C 	C 	0.48557 0.29527 0.09356 -0.04000
C 	C 	0.43976 0.38868 0.02679 0.01000
C 	C 	0.45321 0.41747 0.99227 -0.16400
C 	C 	0.52511 0.22827 0.07010 0.00900
C 	C 	0.50022 0.19014 0.07513 -0.16300
H 	H 	0.51796 0.26484 0.98803 0.04100
H 	H 	0.48097 0.33311 0.96884 0.04100
H 	H 	0.45083 0.35394 0.10950 0.03700
H 	H 	0.48616 0.28432 0.12825 0.04000
H 	H 	0.41186 0.39652 0.04749 0.03900
H 	H 	0.48336 0.41192 0.97456 0.08100
H 	H 	0.55928 0.22555 0.06352 0.03900
H 	H 	0.46857 0.19228 0.09061 0.08300
C 	C 	0.52863 0.93966 0.72329 -0.00400
C 	C 	0.52564 0.98526 0.71772 -0.01700
C 	C 	0.53037 0.01320 0.75468 -0.06900
C 	C 	0.53820 0.99584 0.79745 0.03300
C 	C 	0.53973 0.95016 0.80328 -0.04900
C 	C 	0.53491 0.92222 0.76633 -0.02900
C 	C 	0.54245 0.02552 0.83645 0.00300
C 	C 	0.57546 0.02001 0.86734 -0.17800
C 	C 	0.52451 0.91002 0.68428 0.02100
C 	C 	0.54910 0.91720 0.64505 -0.17500
H 	H 	0.51947 0.99902 0.68483 0.03700
H 	H 	0.52815 0.04833 0.75004 0.04500
H 	H 	0.54425 0.93631 0.83645 0.04600
H 	H 	0.53643 0.88706 0.77109 0.03800
H 	H 	0.52033 0.05261 0.84016 0.04300
H 	H 	0.59964 0.99528 0.86098 0.09200
H 	H 	0.50392 0.88122 0.68728 0.04100
H 	H 	0.57182 0.94440 0.64389 0.08700
C 	C 	0.56642 0.95721 0.31400 0.01500
C 	C 	0.57474 0.00234 0.31033 -0.04500
C 	C 	0.57761 0.02224 0.26797 -0.05100
C 	C 	0.57276 0.99718 0.22873 0.02600
C 	C 	0.56637 0.95157 0.23229 -0.04300
C 	C 	0.56368 0.93162 0.27474 -0.03800
C 	C 	0.56782 0.01971 0.18497 -0.00100
C 	C 	0.58521 0.00250 0.14487 -0.16600
C 	C 	0.56099 0.93718 0.35921 0.01000
C 	C 	0.52707 0.90788 0.36877 -0.16000
H 	H 	0.57780 0.02224 0.34037 0.03900
H 	H 	0.58250 0.05739 0.26567 0.04100
H 	H 	0.56210 0.93182 0.20234 0.04500
H 	H 	0.55907 0.89645 0.27704 0.04100
H 	H 	0.55017 0.05025 0.18424 0.04100
H 	H 	0.60838 0.97621 0.14644 0.08800
H 	H 	0.58042 0.94970 0.38651 0.03700
H 	H 	0.50979 0.89272 0.34128 0.08500
C 	C 	0.60831 0.28121 0.49935 0.00600
C 	C 	0.62772 0.28954 0.45710 -0.03800
C 	C 	0.67219 0.28702 0.45179 -0.03900
C 	C 	0.69772 0.27714 0.48877 0.00700
C 	C 	0.67819 0.26597 0.53016 -0.04000
C 	C 	0.63372 0.26825 0.53547 -0.04000
C 	C 	0.74460 0.28369 0.48544 0.01000
C 	C 	0.76482 0.31364 0.51419 -0.16100
C 	C 	0.56283 0.29229 0.50778 0.01300
C 	C 	0.53151 0.28396 0.47541 -0.17000
H 	H 	0.60868 0.30009 0.42900 0.04200
H 	H 	0.68693 0.29520 0.41957 0.04100
H 	H 	0.69757 0.25723 0.55867 0.04000
H 	H 	0.61914 0.26143 0.56810 0.03900
H 	H 	0.76171 0.27067 0.45631 0.03900
H 	H 	0.74671 0.32707 0.54247 0.08400
H 	H 	0.55391 0.30750 0.53965 0.04000
H 	H 	0.53902 0.26294 0.44685 0.08500
C 	C 	0.19121 0.34237 0.42543 0.00900
C 	C 	0.16535 0.31082 0.44732 -0.04200
C 	C 	0.12080 0.31193 0.44314 -0.03400
C 	C 	0.10180 0.34443 0.41664 -0.00500
C 	C 	0.12810 0.37287 0.39111 -0.03500
C 	C 	0.17255 0.37212 0.39581 -0.04300
C 	C 	0.05626 0.35598 0.42409 0.03600
C 	C 	0.02531 0.32501 0.42910 -0.21000
C 	C 	0.23549 0.35008 0.44033 0.00900
C 	C 	0.26641 0.31724 0.43676 -0.16200
H 	H 	0.17945 0.28746 0.47007 0.04300
H 	H 	0.10106 0.28965 0.46305 0.03900
H 	H 	0.11394 0.39768 0.37007 0.03700
H 	H 	0.19226 0.39627 0.37831 0.04000
H 	H 	0.04835 0.39053 0.42738 0.03300
H 	H 	0.03167 0.29145 0.41876 0.09400
H 	H 	0.24382 0.38184 0.45453 0.04000
H 	H 	0.26019 0.28854 0.41608 0.08300
C 	C 	0.59744 0.63024 0.06860 0.00800
C 	C 	0.61296 0.65591 0.03262 -0.04000
C 	C 	0.65635 0.65483 0.02041 -0.03800
C 	C 	0.68469 0.62892 0.04477 0.00000
C 	C 	0.66981 0.60658 0.08341 -0.03600
C 	C 	0.62631 0.60718 0.09524 -0.04100
C 	C 	0.72706 0.61848 0.02505 0.02900
C 	C 	0.76301 0.62365 0.04912 -0.19100
C 	C 	0.55101 0.62176 0.07328 0.01100
C 	C 	0.53472 0.58008 0.06280 -0.16300
H 	H 	0.59098 0.67432 0.01225 0.04100
H 	H 	0.66753 0.67246 0.99075 0.03900
H 	H 	0.69143 0.58657 0.10262 0.04300
H 	H 	0.61474 0.58783 0.12357 0.04100
H 	H 	0.72853 0.60512 0.99108 0.03700
H 	H 	0.76180 0.64256 0.08019 0.09200
H 	H 	0.52964 0.64963 0.07513 0.04000
H 	H 	0.55668 0.55264 0.06178 0.08300
C 	C 	0.10364 0.61137 0.01141 0.00400
C 	C 	0.13171 0.64250 0.02980 -0.03800
C 	C 	0.17539 0.64174 0.01856 -0.03800
C 	C 	0.19158 0.60891 0.98978 0.00700
C 	C 	0.16311 0.57947 0.96941 -0.04000
C 	C 	0.11936 0.58106 0.97960 -0.03700
C 	C 	0.23823 0.60491 0.98056 0.01400
C 	C 	0.26821 0.61239 0.01451 -0.17100
C 	C 	0.05738 0.61229 0.02363 0.01700
C 	C 	0.03287 0.57353 0.02501 -0.18000
H 	H 	0.11974 0.66727 0.05279 0.03900
H 	H 	0.19638 0.66685 0.03187 0.03900
H 	H 	0.17493 0.55509 0.94589 0.03900
H 	H 	0.09772 0.55895 0.96247 0.03800
H 	H 	0.24867 0.59076 0.94865 0.04000
H 	H 	0.25860 0.62961 0.04498 0.08600
H 	H 	0.04217 0.64369 0.02974 0.03700
H 	H 	0.04893 0.54222 0.02177 0.08600
C 	C 	0.84817 0.48599 0.69079 0.00700
C 	C 	0.80941 0.49449 0.71346 -0.04000
C 	C 	0.80937 0.51701 0.75461 -0.03900
C 	C 	0.84814 0.53149 0.77308 0.00800
C 	C 	0.88666 0.52439 0.74952 -0.03900
C 	C 	0.88674 0.50164 0.70868 -0.03800
C 	C 	0.84888 0.55398 0.81714 0.01000
C 	C 	0.83103 0.53375 0.85558 -0.16100
C 	C 	0.84831 0.46206 0.64749 0.01300
C 	C 	0.87636 0.42705 0.64027 -0.16300
H 	H 	0.77941 0.48331 0.69948 0.03900
H 	H 	0.77932 0.52325 0.77199 0.04000
H 	H 	0.91665 0.53598 0.76319 0.03900
H 	H 	0.91674 0.49634 0.69083 0.04400
H 	H 	0.86974 0.58243 0.82081 0.04000
H 	H 	0.80685 0.50827 0.85159 0.08400
H 	H 	0.82712 0.47254 0.62098 0.03700
H 	H 	0.89225 0.41265 0.66896 0.08400
C 	C 	0.89727 0.42207 0.28444 0.00600
C 	C 	0.90426 0.46759 0.28638 -0.03700
C 	C 	0.90774 0.49205 0.24667 -0.03900
C 	C 	0.90397 0.47130 0.20475 0.00600
C 	C 	0.89795 0.42567 0.20277 -0.03800
C 	C 	0.89478 0.40115 0.24248 -0.03900
C 	C 	0.90673 0.49745 0.16302 0.01400
C 	C 	0.87387 0.49525 0.13147 -0.17100
C 	C 	0.89516 0.39583 0.32615 0.01600
C 	C 	0.86773 0.40765 0.36187 -0.17200
H 	H 	0.90746 0.48390 0.31860 0.04200
H 	H 	0.91300 0.52716 0.24848 0.04000
H 	H 	0.89597 0.40920 0.17051 0.04000
H 	H 	0.89023 0.36594 0.24064 0.03900
H 	H 	0.93256 0.52130 0.15906 0.04000
H 	H 	0.84703 0.47292 0.13729 0.08500
H 	H 	0.91395 0.36611 0.32808 0.04100
H 	H 	0.84617 0.43509 0.35782 0.08500
C 	C 	0.96527 0.56878 0.42908 0.00700
C 	C 	0.00940 0.57658 0.42445 -0.04000
C 	C 	0.02515 0.61954 0.42170 -0.04500
C 	C 	0.99696 0.65507 0.42390 0.01600
C 	C 	0.95252 0.64694 0.42541 -0.04000
C 	C 	0.93686 0.60393 0.42745 -0.03800
C 	C 	0.01430 0.69947 0.43309 0.00400
C 	C 	0.99070 0.73730 0.42433 -0.15800
C 	C 	0.94879 0.52427 0.43836 0.01500
C 	C 	0.96183 0.50151 0.47678 -0.17300
H 	H 	0.03154 0.54946 0.42437 0.04000
H 	H 	0.05940 0.62529 0.42002 0.03900
H 	H 	0.93019 0.67379 0.42745 0.04400
H 	H 	0.90267 0.59807 0.43012 0.03900
H 	H 	0.04430 0.70240 0.45100 0.03900
H 	H 	0.96778 0.73725 0.39718 0.08200
H 	H 	0.92280 0.51156 0.41809 0.03800
H 	H 	0.98807 0.51445 0.49656 0.08700
C 	C 	0.94072 0.15282 0.55379 0.00900
C 	C 	0.97135 0.14409 0.51995 -0.04300
C 	C 	0.98701 0.10168 0.51424 -0.03100
C 	C 	0.97230 0.06764 0.54240 -0.00000
C 	C 	0.94217 0.07646 0.57664 -0.03600
C 	C 	0.92595 0.11879 0.58188 -0.04200
C 	C 	0.98997 0.02326 0.53749 0.02400
C 	C 	0.98698 0.00063 0.49653 -0.18200
C 	C 	0.92156 0.19668 0.55724 0.01000
C 	C 	0.94763 0.23403 0.56125 -0.16400
H 	H 	0.98249 0.17003 0.49763 0.04500
H 	H 	0.01073 0.09530 0.48811 0.03700
H 	H 	0.93096 0.05044 0.59881 0.03800
H 	H 	0.90200 0.12514 0.60779 0.03900
H 	H 	0.00415 0.00769 0.56654 0.03300
H 	H 	0.96722 0.01367 0.46996 0.08600
H 	H 	0.88726 0.19997 0.55306 0.03900
H 	H 	0.97971 0.23064 0.57435 0.08400
C 	C 	0.80914 0.87149 0.50433 0.00500
C 	C 	0.79320 0.82889 0.49637 -0.03800
C 	C 	0.74950 0.82205 0.48938 -0.04000
C 	C 	0.72155 0.85771 0.48942 0.00800
C 	C 	0.73744 0.90015 0.49704 -0.03900
C 	C 	0.78098 0.90699 0.50463 -0.03900
C 	C 	0.67602 0.85130 0.47909 0.01000
C 	C 	0.64931 0.82668 0.50803 -0.16100
C 	C 	0.85569 0.87981 0.50748 0.01400
C 	C 	0.88242 0.85022 0.52938 -0.17400
H 	H 	0.81474 0.80134 0.49424 0.04200
H 	H 	0.73759 0.78923 0.48279 0.04100
H 	H 	0.71604 0.92790 0.49685 0.04000
H 	H 	0.79294 0.93998 0.51013 0.04000
H 	H 	0.66220 0.87159 0.45308 0.04000
H 	H 	0.66342 0.80365 0.53131 0.08400
H 	H 	0.86912 0.90937 0.49220 0.03700
H 	H 	0.86830 0.82351 0.54894 0.08700
C 	C 	0.22076 0.77834 0.52703 0.01000
C 	C 	0.25661 0.76135 0.50437 -0.04300
C 	C 	0.29777 0.77264 0.51833 -0.03400
C 	C 	0.30326 0.80159 0.55460 -0.00500
C 	C 	0.26756 0.81537 0.57966 -0.03400
C 	C 	0.22646 0.80359 0.56618 -0.04000
C 	C 	0.34434 0.82464 0.55989 0.03700
C 	C 	0.37993 0.80253 0.57009 -0.21300
C 	C 	0.17878 0.77722 0.50507 0.01300
C 	C 	0.14121 0.77428 0.53095 -0.16600
H 	H 	0.25262 0.74141 0.47449 0.03900
H 	H 	0.32527 0.76140 0.49904 0.03800
H 	H 	0.27154 0.83736 0.60799 0.04000
H 	H 	0.19907 0.81673 0.58425 0.04800
H 	H 	0.34574 0.85970 0.55318 0.03200
H 	H 	0.37712 0.76902 0.58245 0.09700
H 	H 	0.17706 0.78674 0.46987 0.03700
H 	H 	0.13977 0.75170 0.55926 0.08400
C 	C 	0.93923 0.78019 0.95603 0.00300
C 	C 	0.91572 0.81917 0.95730 -0.03600
C 	C 	0.93682 0.85976 0.95937 -0.04100
C 	C 	0.98167 0.86173 0.96039 0.01300
C 	C 	0.00527 0.82298 0.95740 -0.05100
C 	C 	0.98424 0.78236 0.95587 -0.02500
C 	C 	0.00418 0.90434 0.96401 0.02100
C 	C 	0.99638 0.93126 0.99930 -0.18600
C 	C 	0.91657 0.73758 0.96144 0.01300
C 	C 	0.93323 0.69879 0.94301 -0.16300
H 	H 	0.88106 0.81797 0.95763 0.03900
H 	H 	0.91831 0.88960 0.96063 0.04300
H 	H 	0.03991 0.82425 0.95766 0.04200
H 	H 	0.00293 0.75265 0.95619 0.03700
H 	H 	0.02924 0.91212 0.93938 0.03900
H 	H 	0.97208 0.92198 0.02424 0.09100
H 	H 	0.88744 0.73630 0.98192 0.03900
H 	H 	0.95693 0.70073 0.91589 0.08300
C 	C 	0.95999 0.35986 0.01702 0.00900
C 	C 	0.97271 0.34533 0.05959 -0.04400
C 	C 	0.99706 0.30730 0.06354 -0.02700
C 	C 	0.00883 0.28353 0.02493 -0.00700
C 	C 	0.99627 0.29804 0.98241 -0.02500
C 	C 	0.97132 0.33555 0.97847 -0.04300
C 	C 	0.03335 0.24277 0.02877 0.01500
C 	C 	0.01419 0.20540 0.04808 -0.16800
C 	C 	0.93272 0.39909 0.01344 0.01400
C 	C 	0.93806 0.42882 0.97760 -0.17000
H 	H 	0.96368 0.36346 0.08961 0.04100
H 	H 	0.00665 0.29629 0.09654 0.03500
H 	H 	0.00493 0.27959 0.95248 0.03400
H 	H 	0.96016 0.34516 0.94560 0.04300
H 	H 	0.06293 0.23987 0.00931 0.03700
H 	H 	0.98661 0.20925 0.07046 0.08600
H 	H 	0.91005 0.40606 0.04060 0.04100
H 	H 	0.96299 0.42337 0.95236 0.08500
C 	C 	0.84289 0.08650 0.97187 0.00500
C 	C 	0.80754 0.07146 0.94774 -0.04000
C 	C 	0.76613 0.08008 0.96347 -0.03800
C 	C 	0.75979 0.10323 0.00390 0.00700
C 	C 	0.79515 0.11894 0.02763 -0.04100
C 	C 	0.83658 0.11096 0.01147 -0.03900
C 	C 	0.71655 0.10658 0.02376 0.01100
C 	C 	0.68346 0.12418 0.99862 -0.16500
C 	C 	0.88608 0.07201 0.95899 0.01400
C 	C 	0.91860 0.10273 0.95022 -0.17800
H 	H 	0.81214 0.05228 0.91736 0.03800
H 	H 	0.73897 0.06737 0.94516 0.04500
H 	H 	0.79056 0.13655 0.05901 0.03900
H 	H 	0.86377 0.12233 0.03059 0.04100
H 	H 	0.70937 0.08951 0.05514 0.03700
H 	H 	0.69087 0.14988 0.97428 0.08500
H 	H 	0.89340 0.03728 0.96056 0.03600
H 	H 	0.91025 0.13565 0.93970 0.08900
C 	C 	0.26300 0.12662 0.99951 0.00900
C 	C 	0.29156 0.09557 0.01594 -0.04100
C 	C 	0.33487 0.09801 0.00411 -0.03700
C 	C 	0.35006 0.13128 0.97509 0.00500
C 	C 	0.32213 0.16411 0.96111 -0.03800
C 	C 	0.27876 0.16203 0.97354 -0.03800
C 	C 	0.39551 0.13235 0.96050 0.01600
C 	C 	0.41669 0.09322 0.95042 -0.17700
C 	C 	0.21665 0.12086 0.00884 0.01100
C 	C 	0.18662 0.12771 0.97508 -0.16200
H 	H 	0.28003 0.06894 0.03715 0.03800
H 	H 	0.35658 0.07386 0.01725 0.03800
H 	H 	0.33385 0.19089 0.94023 0.03900
H 	H 	0.25758 0.18786 0.96306 0.03900
H 	H 	0.41344 0.16298 0.96262 0.03900
H 	H 	0.39753 0.06444 0.94224 0.08600
H 	H 	0.20670 0.10412 0.03966 0.03700
H 	H 	0.19389 0.15040 0.94778 0.08300
C 	C 	0.02491 0.98318 0.79201 0.01200
C 	C 	0.06014 0.96161 0.77239 -0.03900
C 	C 	0.05449 0.93429 0.73533 -0.03700
C 	C 	0.01441 0.93116 0.71480 0.00300
C 	C 	0.97904 0.95200 0.73461 -0.03400
C 	C 	0.98426 0.97789 0.77313 -0.03700
C 	C 	0.01019 0.90863 0.67098 0.01300
C 	C 	0.04230 0.91351 0.63787 -0.17100
C 	C 	0.03073 0.01352 0.83050 0.01000
C 	C 	0.06303 0.00677 0.86203 -0.18300
H 	H 	0.09209 0.96693 0.78492 0.04300
H 	H 	0.08169 0.91677 0.72153 0.04200
H 	H 	0.94782 0.94923 0.71948 0.04000
H 	H 	0.95687 0.99442 0.78783 0.04300
H 	H 	0.98168 0.88913 0.66442 0.04300
H 	H 	0.06870 0.93618 0.64367 0.08600
H 	H 	0.00891 0.04083 0.83459 0.03900
H 	H 	0.08239 0.97743 0.86003 0.09200
C 	C 	0.07337 0.99786 0.21293 0.01300
C 	C 	0.10892 0.97587 0.22998 -0.04000
C 	C 	0.10353 0.94566 0.26510 -0.03600
C 	C 	0.06267 0.93794 0.28406 0.00100
C 	C 	0.02723 0.95970 0.26676 -0.04200
C 	C 	0.03261 0.98985 0.23169 -0.02800
C 	C 	0.05698 0.90878 0.32347 0.03200
C 	C 	0.07986 0.91584 0.36097 -0.19600
C 	C 	0.07821 0.02822 0.17444 0.00500
C 	C 	0.09790 0.01414 0.13432 -0.17300
H 	H 	0.14065 0.98222 0.21616 0.04200
H 	H 	0.13107 0.92859 0.27780 0.04000
H 	H 	0.99559 0.95388 0.28110 0.04300
H 	H 	0.00500 0.00661 0.21868 0.02900
H 	H 	0.03020 0.88574 0.32379 0.03100
H 	H 	0.10627 0.93934 0.35977 0.09400
H 	H 	0.05955 0.05811 0.17470 0.03800
H 	H 	0.12012 0.98698 0.13535 0.09100
