data_crystal

_cell_length_a 33.27190
_cell_length_b 33.11295
_cell_length_c 26.90087
_cell_angle_alpha 90.63824
_cell_angle_beta  89.28319
_cell_angle_gamma 119.97121

_symmetry_space_group_name_	'P 1'
_symmetry_space_group_name_H-M	'P 1'

loop_
_symmetry_equiv_pos_as_xyz
  x,y,z

loop_
_atom_site_label
_atom_site_type_symbol
_atom_site_fract_x
_atom_site_fract_y
_atom_site_fract_z
_atom_site_charge
Ni	Ni	0.45599 0.26175 0.96568 1.09900
O 	O 	0.45609 0.25654 0.88932 -0.37300
O 	O 	0.40305 0.19294 0.96374 -0.36900
O 	O 	0.36550 0.23133 0.02612 -0.40400
O 	O 	0.46923 0.27512 0.03838 -0.70200
O 	O 	0.40658 0.28035 0.96193 -0.38400
O 	O 	0.44827 0.22338 0.13397 -0.41200
Ni	Ni	0.41305 0.23191 0.07482 1.06300
O 	O 	0.40950 0.17408 0.04331 -0.42000
C 	C 	0.39468 0.16137 0.99778 0.29600
C 	C 	0.37356 0.26625 0.99612 0.28400
Ni	Ni	0.45536 0.25942 0.46364 1.09900
O 	O 	0.46071 0.25697 0.38758 -0.38000
O 	O 	0.40488 0.18981 0.46075 -0.37200
O 	O 	0.36268 0.22365 0.52048 -0.40900
O 	O 	0.46605 0.27349 0.53620 -0.70400
O 	O 	0.40390 0.27491 0.45741 -0.38900
O 	O 	0.44724 0.22418 0.63178 -0.40900
Ni	Ni	0.41052 0.22842 0.57148 1.06400
O 	O 	0.41192 0.17275 0.54088 -0.42100
C 	C 	0.39741 0.15904 0.49543 0.29600
C 	C 	0.36857 0.25699 0.48913 0.28400
Ni	Ni	0.22132 0.80687 0.89948 1.09600
O 	O 	0.24254 0.87525 0.91421 -0.70400
Ni	Ni	0.22408 0.87259 0.98554 1.09900
O 	O 	0.24402 0.82249 0.82721 -0.37600
O 	O 	0.20087 0.85794 0.81425 -0.41000
O 	O 	0.28760 0.82560 0.91948 -0.39800
Ni	Ni	0.21411 0.90315 0.87471 1.06500
O 	O 	0.16805 0.70993 0.96328 -0.42200
O 	O 	0.14628 0.85972 0.89518 -0.39500
O 	O 	0.25376 0.94245 0.99707 -0.37800
O 	O 	0.19469 0.80351 0.96755 -0.70600
O 	O 	0.20477 0.73847 0.88748 -0.38500
O 	O 	0.21228 0.86089 0.06054 -0.37800
O 	O 	0.24718 0.81649 0.05991 -0.41800
Ni	Ni	0.20861 0.76402 0.00866 1.07000
H 	H 	0.27668 0.89487 0.91132 0.15200
H 	H 	0.16060 0.78851 0.96542 0.15400
C 	C 	0.13265 0.84723 0.94128 0.28200
O 	O 	0.26640 0.76756 0.97644 -0.40400
C 	C 	0.22970 0.84421 0.79764 0.27700
C 	C 	0.25602 0.96992 0.96063 0.27200
C 	C 	0.29857 0.80365 0.95214 0.30400
C 	C 	0.22822 0.83747 0.08456 0.28000
C 	C 	0.18266 0.70365 0.91948 0.29700
O 	O 	0.16093 0.86912 0.97836 -0.37500
O 	O 	0.22374 0.95400 0.92558 -0.40200
Ni	Ni	0.21398 0.79904 0.39940 1.09800
O 	O 	0.24206 0.86884 0.41309 -0.70400
Ni	Ni	0.23090 0.86959 0.48624 1.09700
O 	O 	0.23014 0.81104 0.32514 -0.37000
O 	O 	0.19273 0.85292 0.31802 -0.40800
O 	O 	0.27987 0.81135 0.41109 -0.38700
Ni	Ni	0.21120 0.89763 0.37953 1.06500
O 	O 	0.16157 0.70454 0.46685 -0.42400
O 	O 	0.14620 0.85380 0.40800 -0.40700
O 	O 	0.26638 0.93974 0.49525 -0.38300
O 	O 	0.19465 0.79987 0.47038 -0.70700
O 	O 	0.19032 0.72901 0.38753 -0.37800
O 	O 	0.22538 0.86117 0.56202 -0.38300
O 	O 	0.25213 0.80968 0.55885 -0.42000
Ni	Ni	0.20627 0.75812 0.51046 1.06800
H 	H 	0.27579 0.88644 0.40584 0.15300
H 	H 	0.16084 0.78737 0.47019 0.15500
C 	C 	0.13717 0.84987 0.45592 0.28700
O 	O 	0.26020 0.75856 0.47318 -0.40300
C 	C 	0.21930 0.83752 0.29872 0.27900
C 	C 	0.26328 0.96644 0.46125 0.27600
C 	C 	0.29181 0.79453 0.44844 0.29500
C 	C 	0.23987 0.83586 0.58466 0.28000
C 	C 	0.17410 0.69668 0.42264 0.30000
O 	O 	0.17070 0.87282 0.48776 -0.37600
O 	O 	0.22680 0.94945 0.43136 -0.40500
Ni	Ni	0.21856 0.40326 0.99615 1.09800
O 	O 	0.18792 0.44138 0.97819 -0.70600
Ni	Ni	0.21011 0.45923 0.90758 1.09600
O 	O 	0.21135 0.40780 0.07153 -0.37800
O 	O 	0.24517 0.48697 0.06829 -0.42300
O 	O 	0.15544 0.34195 0.99813 -0.37000
Ni	Ni	0.20519 0.49784 0.01713 1.06600
O 	O 	0.20907 0.31554 0.94218 -0.40300
O 	O 	0.26417 0.54784 0.98236 -0.40000
O 	O 	0.19102 0.50852 0.89302 -0.38500
O 	O 	0.23286 0.41382 0.92340 -0.70400
O 	O 	0.24909 0.36435 0.00698 -0.38300
O 	O 	0.22755 0.46027 0.83404 -0.37400
O 	O 	0.18366 0.38075 0.82681 -0.41200
Ni	Ni	0.19904 0.35396 0.88919 1.06500
H 	H 	0.15371 0.42167 0.97839 0.15100
H 	H 	0.26663 0.42759 0.91750 0.15500
C 	C 	0.29301 0.53953 0.95658 0.29000
O 	O 	0.13585 0.33918 0.91661 -0.41900
C 	C 	0.22764 0.44827 0.09411 0.28300
C 	C 	0.18192 0.53192 0.92743 0.30100
C 	C 	0.12390 0.32749 0.96309 0.29700
C 	C 	0.21205 0.42188 0.80719 0.28000
C 	C 	0.24484 0.33338 0.97307 0.28300
O 	O 	0.27792 0.50979 0.91924 -0.38900
O 	O 	0.16727 0.51444 0.97228 -0.42400
Ni	Ni	0.22240 0.39896 0.49338 1.09800
O 	O 	0.19456 0.44014 0.47850 -0.70700
Ni	Ni	0.21976 0.46260 0.40978 1.09800
O 	O 	0.21336 0.39922 0.56899 -0.38100
O 	O 	0.24955 0.47865 0.57123 -0.42500
O 	O 	0.15771 0.33961 0.49131 -0.37600
Ni	Ni	0.21163 0.49394 0.52162 1.06700
O 	O 	0.21022 0.31327 0.43286 -0.41300
O 	O 	0.27164 0.54591 0.49008 -0.40200
O 	O 	0.20380 0.51478 0.39961 -0.38000
O 	O 	0.23971 0.41434 0.42180 -0.70400
O 	O 	0.25006 0.35710 0.50094 -0.38900
O 	O 	0.23924 0.46811 0.33635 -0.37300
O 	O 	0.19312 0.38958 0.32351 -0.41200
Ni	Ni	0.20575 0.35742 0.38292 1.06500
H 	H 	0.16032 0.42135 0.47688 0.15400
H 	H 	0.27352 0.42738 0.41711 0.15200
C 	C 	0.30142 0.53912 0.46405 0.29200
O 	O 	0.14284 0.34369 0.40946 -0.42000
C 	C 	0.23095 0.43843 0.59436 0.28200
C 	C 	0.19007 0.53351 0.43510 0.29900
C 	C 	0.12841 0.32713 0.45413 0.29700
C 	C 	0.22283 0.43150 0.30656 0.27800
C 	C 	0.24371 0.32610 0.46609 0.28300
O 	O 	0.28747 0.51008 0.42610 -0.39300
O 	O 	0.17446 0.51274 0.47843 -0.42500
C 	C 	0.24179 0.40877 0.72738 -0.04900
C 	C 	0.21628 0.42590 0.75270 -0.09200
C 	C 	0.19673 0.44845 0.72590 0.10700
C 	C 	0.20485 0.45510 0.67453 -0.04400
C 	C 	0.22969 0.43729 0.64907 -0.10000
C 	C 	0.24935 0.41486 0.67583 0.10900
N 	N 	0.27659 0.40042 0.65262 -0.19900
H 	H 	0.25684 0.39168 0.74804 0.02800
H 	H 	0.18982 0.47222 0.65390 0.02000
N 	N 	0.16881 0.46220 0.74884 -0.19800
H 	H 	0.28944 0.38227 0.67227 0.07800
H 	H 	0.28688 0.40870 0.61556 0.09000
H 	H 	0.15756 0.45299 0.78550 0.09200
H 	H 	0.15619 0.48055 0.72919 0.07900
C 	C 	0.18380 0.42472 0.22665 -0.04300
C 	C 	0.22520 0.43921 0.25250 -0.09100
C 	C 	0.26813 0.46096 0.22645 0.09800
C 	C 	0.26849 0.46669 0.17470 -0.04000
C 	C 	0.22685 0.45012 0.14869 -0.09900
C 	C 	0.18422 0.43038 0.17505 0.10100
N 	N 	0.14369 0.41733 0.15111 -0.19700
H 	H 	0.15109 0.40920 0.24686 0.04700
H 	H 	0.30114 0.48228 0.15437 0.04200
N 	N 	0.30884 0.47511 0.25045 -0.19900
H 	H 	0.11218 0.40141 0.17062 0.07900
H 	H 	0.14314 0.42416 0.11340 0.06000
H 	H 	0.30972 0.46919 0.28834 0.08100
H 	H 	0.34034 0.49164 0.23094 0.07900
C 	C 	0.01577 0.22706 0.50467 -0.04900
C 	C 	0.04577 0.30308 0.44058 -0.04900
C 	C 	0.07850 0.29425 0.46273 -0.10100
C 	C 	0.06309 0.25393 0.49237 0.11100
N 	N 	0.09297 0.23971 0.50721 -0.20000
H 	H 	0.00424 0.19806 0.53007 0.04700
H 	H 	0.05735 0.33278 0.41616 0.04100
H 	H 	0.08192 0.21188 0.53185 0.08400
H 	H 	0.12606 0.25350 0.49154 0.10400
C 	C 	0.00188 0.22231 0.96558 -0.06000
C 	C 	0.00571 0.28169 0.02292 0.07700
C 	C 	0.05281 0.31034 0.01059 -0.03400
C 	C 	0.07468 0.29555 0.97602 -0.10100
C 	C 	0.04925 0.25069 0.95391 0.11400
N 	N 	0.07038 0.23387 0.92324 -0.20000
H 	H 	0.07232 0.34466 0.02742 0.03000
H 	H 	0.05097 0.20159 0.90555 0.08300
H 	H 	0.10635 0.25136 0.91854 0.08400
H 	H 	0.00441 0.33059 0.07198 0.07400
C 	C 	0.37195 0.60335 0.42450 -0.04500
C 	C 	0.35097 0.57519 0.46614 -0.09300
C 	C 	0.37629 0.58462 0.51066 0.10000
C 	C 	0.41878 0.62638 0.51535 -0.04000
C 	C 	0.43769 0.65722 0.47517 -0.10000
C 	C 	0.41612 0.64320 0.42797 0.10300
N 	N 	0.43739 0.66751 0.38608 -0.20400
H 	H 	0.35357 0.59473 0.38950 0.05000
N 	N 	0.36088 0.55311 0.54815 -0.19900
H 	H 	0.41980 0.65857 0.35224 0.08500
H 	H 	0.47206 0.69363 0.38587 0.10400
H 	H 	0.33404 0.51900 0.54245 0.08300
H 	H 	0.37810 0.56143 0.58219 0.08400
C 	C 	0.35901 0.61026 0.92037 -0.04400
C 	C 	0.34254 0.57560 0.95672 -0.09000
C 	C 	0.37156 0.57979 0.99672 0.09900
C 	C 	0.41500 0.62062 0.00169 -0.04600
C 	C 	0.39933 0.65320 0.92843 0.11200
N 	N 	0.40682 0.69058 0.90096 -0.19800
H 	H 	0.33802 0.60568 0.88809 0.04900
N 	N 	0.35862 0.54437 0.02952 -0.19800
H 	H 	0.38856 0.68576 0.86804 0.08500
H 	H 	0.42528 0.72429 0.91534 0.10900
H 	H 	0.32889 0.51203 0.02386 0.07400
H 	H 	0.37936 0.54832 0.06012 0.08100
C 	C 	0.41526 0.83974 0.48932 -0.04200
C 	C 	0.42498 0.80755 0.46542 -0.09700
C 	C 	0.39177 0.77383 0.43257 0.11000
C 	C 	0.35095 0.77453 0.42278 -0.04100
C 	C 	0.33967 0.80381 0.44983 -0.09200
C 	C 	0.37257 0.83783 0.48222 0.09700
N 	N 	0.36365 0.86896 0.50618 -0.19600
H 	H 	0.44084 0.86621 0.51362 0.04500
H 	H 	0.32596 0.74931 0.39705 0.04800
N 	N 	0.39732 0.73890 0.41319 -0.19900
H 	H 	0.38761 0.89314 0.53117 0.07900
H 	H 	0.33350 0.87026 0.49931 0.06500
H 	H 	0.41937 0.72934 0.42965 0.10300
H 	H 	0.37568 0.71759 0.38483 0.08400
C 	C 	0.14085 0.57020 0.43198 -0.04500
C 	C 	0.18405 0.57351 0.42287 -0.09700
C 	C 	0.22177 0.61613 0.40546 0.10800
C 	C 	0.21568 0.65478 0.39943 -0.04400
C 	C 	0.17403 0.65266 0.41367 -0.09700
C 	C 	0.13535 0.60933 0.42701 0.10200
N 	N 	0.09275 0.60486 0.43391 -0.20000
H 	H 	0.11153 0.53717 0.44344 0.04200
H 	H 	0.24468 0.68765 0.38721 0.05500
N 	N 	0.26428 0.62086 0.39652 -0.20000
H 	H 	0.06467 0.57319 0.44560 0.07300
H 	H 	0.08665 0.63206 0.42554 0.08500
H 	H 	0.27140 0.59435 0.40435 0.10500
H 	H 	0.29138 0.65216 0.38270 0.08400
C 	C 	0.05500 0.83034 0.44927 -0.04100
C 	C 	0.08828 0.82350 0.47340 -0.09600
C 	C 	0.07330 0.78650 0.50799 0.09700
C 	C 	0.02597 0.75343 0.51176 -0.05300
C 	C 	0.00736 0.80049 0.45812 0.09900
H 	H 	0.06622 0.85943 0.42404 0.04600
H 	H 	0.01481 0.72344 0.53566 0.04000
N 	N 	0.10362 0.78352 0.53902 -0.20800
H 	H 	0.13591 0.81228 0.54650 0.08600
H 	H 	0.09314 0.75351 0.56012 0.06600
C 	C 	0.37305 0.83273 0.99603 -0.04200
C 	C 	0.34666 0.81291 0.95317 -0.09900
C 	C 	0.36636 0.80147 0.91212 0.11200
C 	C 	0.41145 0.80844 0.91586 -0.04700
C 	C 	0.43565 0.82327 0.96081 -0.09000
C 	C 	0.41774 0.83867 0.99993 0.09600
H 	H 	0.35859 0.84307 0.02667 0.03900
H 	H 	0.42600 0.79829 0.88516 0.05200
N 	N 	0.34164 0.78204 0.86997 -0.20200
H 	H 	0.30713 0.77372 0.86684 0.10400
H 	H 	0.35668 0.77399 0.83994 0.08400
C 	C 	0.21800 0.65628 0.89351 -0.04500
C 	C 	0.17822 0.65790 0.90789 -0.09600
C 	C 	0.13678 0.61590 0.91870 0.10100
C 	C 	0.13785 0.57411 0.92213 -0.04400
C 	C 	0.17905 0.57332 0.91262 -0.09700
C 	C 	0.21884 0.61435 0.89537 0.10800
N 	N 	0.25816 0.61407 0.88157 -0.20100
H 	H 	0.24926 0.68821 0.88332 0.05300
H 	H 	0.10675 0.54231 0.93305 0.04300
N 	N 	0.09586 0.61532 0.92475 -0.19900
H 	H 	0.28798 0.64505 0.87149 0.08500
H 	H 	0.25910 0.58320 0.87862 0.10500
H 	H 	0.09309 0.64469 0.91708 0.08400
H 	H 	0.06575 0.58459 0.93477 0.07600
C 	C 	0.01163 0.73997 0.93983 -0.05400
C 	C 	0.01138 0.79900 0.99445 0.10000
C 	C 	0.05880 0.82861 0.98423 -0.04000
C 	C 	0.08288 0.81457 0.95171 -0.09400
C 	C 	0.05893 0.76976 0.92889 0.09600
N 	N 	0.08125 0.75456 0.89775 -0.19700
H 	H 	0.07675 0.86315 0.00080 0.05200
H 	H 	0.06303 0.72178 0.88077 0.07200
H 	H 	0.11680 0.77434 0.89081 0.05700
H 	H 	0.00587 0.84774 0.03998 0.07900
C 	C 	0.26491 0.88126 0.71704 -0.05000
C 	C 	0.23479 0.84087 0.74351 -0.09000
C 	C 	0.20915 0.79787 0.71782 0.10500
C 	C 	0.21410 0.79641 0.66600 -0.04400
C 	C 	0.24271 0.83718 0.63933 -0.09900
C 	C 	0.26972 0.87973 0.66519 0.11000
N 	N 	0.30103 0.91885 0.64068 -0.19900
H 	H 	0.28494 0.91397 0.73687 0.03000
H 	H 	0.19383 0.76378 0.64611 0.02000
N 	N 	0.17881 0.75826 0.74233 -0.19700
H 	H 	0.31961 0.95051 0.65974 0.08100
H 	H 	0.30865 0.91785 0.60306 0.09100
H 	H 	0.17188 0.75852 0.78023 0.08900
H 	H 	0.16080 0.72661 0.72312 0.07800
C 	C 	0.24850 0.87945 0.16544 -0.04000
C 	C 	0.22715 0.83694 0.13939 -0.09200
C 	C 	0.20430 0.79445 0.16600 0.09600
C 	C 	0.20445 0.79547 0.21820 -0.04000
C 	C 	0.22488 0.83798 0.24421 -0.08800
C 	C 	0.24796 0.88043 0.21768 0.09500
N 	N 	0.27045 0.92210 0.24201 -0.19700
H 	H 	0.26606 0.91191 0.14501 0.04700
H 	H 	0.18679 0.76301 0.23863 0.05000
N 	N 	0.18071 0.75278 0.14184 -0.19300
H 	H 	0.28640 0.95329 0.22212 0.07500
H 	H 	0.27355 0.92397 0.28065 0.05000
H 	H 	0.17550 0.75082 0.10352 0.03300
H 	H 	0.16546 0.72161 0.16178 0.07500
C 	C 	0.33198 0.03975 0.43410 -0.05000
C 	C 	0.29338 0.01721 0.46584 -0.09300
C 	C 	0.28855 0.04171 0.50674 0.11100
C 	C 	0.32391 0.08743 0.51686 -0.04200
C 	C 	0.36338 0.10952 0.48614 -0.09500
C 	C 	0.36765 0.08537 0.44442 0.10500
N 	N 	0.40653 0.10495 0.41538 -0.19800
H 	H 	0.33554 0.02082 0.40278 0.02500
H 	H 	0.32012 0.10632 0.54808 0.03800
N 	N 	0.24981 0.02179 0.53597 -0.19800
H 	H 	0.40865 0.08752 0.38371 0.07700
H 	H 	0.43566 0.13659 0.42496 0.07600
H 	H 	0.22146 0.98924 0.52728 0.10400
H 	H 	0.24711 0.03956 0.56704 0.08400
C 	C 	0.30721 0.27106 0.52376 -0.05100
C 	C 	0.32974 0.26584 0.48187 -0.09600
C 	C 	0.31598 0.27095 0.43377 0.10800
C 	C 	0.28653 0.28963 0.42894 -0.05100
C 	C 	0.26665 0.29813 0.47113 -0.10000
C 	C 	0.27370 0.28454 0.51846 0.10900
N 	N 	0.24708 0.28243 0.55823 -0.19900
H 	H 	0.31551 0.26432 0.56051 0.02800
H 	H 	0.27905 0.29748 0.39232 0.02500
N 	N 	0.32861 0.25559 0.39263 -0.19900
H 	H 	0.25439 0.27524 0.59365 0.07900
H 	H 	0.21699 0.28442 0.55374 0.10200
H 	H 	0.34183 0.23300 0.39549 0.10600
H 	H 	0.32137 0.26275 0.35717 0.07900
C 	C 	0.46244 0.28220 0.73042 0.09400
C 	C 	0.46430 0.28441 0.78262 -0.03900
H 	H 	0.44363 0.29606 0.80309 0.04800
N 	N 	0.43507 0.29519 0.70619 -0.19700
H 	H 	0.43492 0.29660 0.66745 0.05000
H 	H 	0.41428 0.30518 0.72620 0.07400
N 	N 	0.45156 0.31393 0.30344 -0.19900
H 	H 	0.44658 0.29232 0.20867 0.02500
H 	H 	0.42890 0.32048 0.28305 0.07700
H 	H 	0.45818 0.32565 0.34023 0.09000
C 	C 	0.32633 0.04284 0.93451 -0.05000
C 	C 	0.28748 0.02070 0.96604 -0.09100
C 	C 	0.28336 0.04534 0.00729 0.11000
C 	C 	0.31977 0.09045 0.01824 -0.04300
C 	C 	0.35943 0.11212 0.98768 -0.09100
C 	C 	0.36286 0.08801 0.94539 0.10400
N 	N 	0.40169 0.10713 0.91627 -0.19700
H 	H 	0.32937 0.02394 0.90285 0.02400
H 	H 	0.31655 0.10931 0.04984 0.04000
N 	N 	0.24415 0.02637 0.03578 -0.19700
H 	H 	0.40325 0.08979 0.88424 0.07800
H 	H 	0.43126 0.13831 0.92605 0.07700
H 	H 	0.21490 0.99489 0.02594 0.10200
H 	H 	0.24195 0.04404 0.06721 0.08400
C 	C 	0.32450 0.28485 0.94278 -0.04000
C 	C 	0.33745 0.27953 0.99074 -0.08900
C 	C 	0.31705 0.28875 0.03272 0.09500
C 	C 	0.28294 0.30124 0.02565 -0.04100
C 	C 	0.27321 0.31067 0.97786 -0.09000
C 	C 	0.29482 0.30300 0.93590 0.09300
N 	N 	0.28896 0.31480 0.88933 -0.19300
H 	H 	0.33941 0.27703 0.91057 0.05500
H 	H 	0.26607 0.30660 0.05776 0.05500
N 	N 	0.33159 0.28804 0.07961 -0.19500
H 	H 	0.30279 0.30634 0.85849 0.07300
H 	H 	0.27355 0.33507 0.88338 0.03600
H 	H 	0.36201 0.28718 0.08600 0.04600
H 	H 	0.31425 0.29188 0.11036 0.07400
C 	C 	0.46879 0.28386 0.23005 -0.04900
C 	C 	0.47359 0.29305 0.28146 0.10700
O 	O 	0.50540 0.24320 0.97665 -0.70400
Ni	Ni	0.52320 0.26278 0.04790 1.09400
O 	O 	0.53455 0.30230 0.88556 -0.41100
O 	O 	0.52538 0.27647 0.12290 -0.37400
H 	H 	0.49182 0.20902 0.97394 0.15000
H 	H 	0.47798 0.30780 0.04610 0.15500
C 	C 	0.49483 0.27601 0.86334 0.28300
C 	C 	0.48801 0.25693 0.15151 0.27900
O 	O 	0.50511 0.24224 0.47752 -0.70700
Ni	Ni	0.52252 0.26568 0.54732 1.09800
O 	O 	0.53946 0.30454 0.38988 -0.42000
O 	O 	0.52314 0.28120 0.62154 -0.37100
H 	H 	0.49177 0.20802 0.47742 0.15400
H 	H 	0.47258 0.30560 0.54334 0.15500
C 	C 	0.50075 0.28149 0.36439 0.27700
C 	C 	0.48539 0.26006 0.64948 0.27900
O 	O 	0.49629 0.72864 0.93797 -0.37700
O 	O 	0.46090 0.77736 0.00350 -0.41900
O 	O 	0.50397 0.82050 0.93693 -0.38700
Ni	Ni	0.50544 0.77329 0.05196 1.06300
O 	O 	0.49222 0.71229 0.02031 -0.42400
C 	C 	0.47442 0.70134 0.97587 0.30400
C 	C 	0.47150 0.81083 0.97099 0.28500
O 	O 	0.51229 0.72598 0.46079 -0.40800
O 	O 	0.48861 0.82317 0.51970 -0.42500
O 	O 	0.49163 0.80144 0.43847 -0.38600
O 	O 	0.46585 0.72784 0.52337 -0.40300
C 	C 	0.47298 0.70640 0.48563 0.30800
C 	C 	0.46949 0.80919 0.47548 0.29900
H 	H 	0.43661 0.63545 0.55071 0.04500
C 	C 	0.42908 0.65786 0.96829 -0.09900
H 	H 	0.43771 0.62341 0.03170 0.04800
N 	N 	0.44328 0.85904 0.04127 -0.20000
H 	H 	0.42934 0.86892 0.07087 0.07500
H 	H 	0.47773 0.86679 0.04360 0.05900
C 	C 	0.51931 0.25625 0.72962 -0.03900
C 	C 	0.48981 0.26737 0.70378 -0.08800
C 	C 	0.49316 0.27240 0.80853 -0.09200
C 	C 	0.52024 0.25720 0.78182 0.09500
C 	C 	0.49315 0.26481 0.20586 -0.09300
C 	C 	0.52267 0.25426 0.23368 0.10600
C 	C 	0.52798 0.26415 0.28495 -0.04600
C 	C 	0.50231 0.28161 0.30942 -0.09800
Ni	Ni	0.51404 0.78849 0.55747 1.06900
H 	H 	0.54263 0.23628 0.84427 0.02900
H 	H 	0.55006 0.25555 0.30638 0.01800
H 	H 	0.53669 0.21962 0.17585 0.09500
Ni	Ni	0.56115 0.27386 0.93471 1.06800
O 	O 	0.60191 0.33950 0.96442 -0.40300
O 	O 	0.58016 0.25399 0.05520 -0.39100
O 	O 	0.56576 0.33306 0.03866 -0.39500
O 	O 	0.59283 0.24491 0.97236 -0.42300
Ni	Ni	0.56134 0.26995 0.43708 1.06800
O 	O 	0.58238 0.26227 0.55640 -0.38100
C 	C 	0.59714 0.35533 0.50381 0.30400
O 	O 	0.56001 0.33563 0.53234 -0.39800
O 	O 	0.58451 0.23441 0.47737 -0.42300
Ni	Ni	0.55011 0.79705 0.94179 1.09600
O 	O 	0.54893 0.79043 0.86554 -0.36800
O 	O 	0.56397 0.81070 0.01504 -0.70300
O 	O 	0.53368 0.75507 0.10998 -0.41600
H 	H 	0.57756 0.84439 0.02227 0.14900
Ni	Ni	0.55038 0.79578 0.44524 1.09700
O 	O 	0.54712 0.78070 0.37061 -0.37900
O 	O 	0.56968 0.81720 0.51538 -0.70200
O 	O 	0.53741 0.75318 0.60102 -0.41900
C 	C 	0.55889 0.74255 0.71041 -0.04200
C 	C 	0.56097 0.74712 0.76250 0.09600
N 	N 	0.54550 0.70845 0.79116 -0.20000
H 	H 	0.54561 0.70838 0.69351 0.04400
H 	H 	0.53189 0.67550 0.77468 0.08000
H 	H 	0.54664 0.71057 0.82991 0.07900
C 	C 	0.58138 0.82858 0.20492 -0.05100
C 	C 	0.57995 0.83269 0.25682 0.10600
N 	N 	0.57919 0.87014 0.27710 -0.19900
H 	H 	0.58299 0.85582 0.18149 0.02900
H 	H 	0.58229 0.89701 0.25445 0.07800
H 	H 	0.57367 0.87210 0.31512 0.09300
H 	H 	0.58167 0.40520 0.44081 0.08300
N 	N 	0.54560 0.24166 0.80593 -0.19300
H 	H 	0.54006 0.24471 0.70910 0.04900
H 	H 	0.56699 0.23245 0.78593 0.07500
N 	N 	0.54433 0.23284 0.21202 -0.19800
H 	H 	0.56757 0.22709 0.23233 0.07900
C 	C 	0.60367 0.35149 0.01146 0.30000
C 	C 	0.60137 0.24690 0.52284 0.29600
C 	C 	0.60816 0.25624 0.01834 0.29300
O 	O 	0.60760 0.33044 0.47343 -0.40400
O 	O 	0.59644 0.77428 0.95236 -0.70200
Ni	Ni	0.61011 0.78776 0.02566 1.09600
O 	O 	0.61210 0.79669 0.10162 -0.37100
H 	H 	0.58314 0.74065 0.94498 0.15200
C 	C 	0.58546 0.79888 0.83847 0.28500
C 	C 	0.57452 0.78333 0.12873 0.28400
O 	O 	0.60574 0.78566 0.45266 -0.70200
Ni	Ni	0.61894 0.79825 0.52532 1.10000
O 	O 	0.62254 0.83800 0.35900 -0.41500
O 	O 	0.61612 0.79921 0.60171 -0.37200
H 	H 	0.59790 0.75334 0.44436 0.15400
H 	H 	0.58362 0.85148 0.51692 0.15300
C 	C 	0.58366 0.80331 0.34139 0.28000
C 	C 	0.57634 0.77647 0.62574 0.28100
C 	C 	0.57491 0.78189 0.68005 -0.10200
C 	C 	0.59108 0.82639 0.70197 0.09800
C 	C 	0.59438 0.83112 0.75388 -0.04100
C 	C 	0.57976 0.79203 0.78428 -0.09200
H 	H 	0.60778 0.86534 0.77073 0.04900
N 	N 	0.60230 0.86441 0.67356 -0.19700
H 	H 	0.59533 0.86133 0.63555 0.06000
H 	H 	0.61622 0.89746 0.68987 0.07800
C 	C 	0.57881 0.78881 0.18300 -0.09700
C 	C 	0.57582 0.75273 0.21341 0.10900
C 	C 	0.57494 0.75709 0.26534 -0.05200
C 	C 	0.57792 0.79707 0.28724 -0.09600
H 	H 	0.57329 0.72985 0.28878 0.03500
N 	N 	0.57450 0.71426 0.19309 -0.20000
H 	H 	0.57749 0.71096 0.15478 0.09500
H 	H 	0.57142 0.68745 0.21582 0.08000
C 	C 	0.63307 0.40397 0.51421 -0.09600
C 	C 	0.64549 0.43873 0.47791 0.10300
N 	N 	0.61545 0.43358 0.44129 -0.20000
H 	H 	0.62527 0.45880 0.41364 0.08200
C 	C 	0.63916 0.19861 0.52844 -0.04400
C 	C 	0.64107 0.24138 0.53735 -0.09700
H 	H 	0.60749 0.16921 0.51446 0.04300
H 	H 	0.64536 0.12386 0.51406 0.07900
C 	C 	0.64879 0.43781 0.00537 -0.03900
C 	C 	0.64307 0.39695 0.02711 -0.09500
H 	H 	0.62035 0.43687 0.98514 0.04600
H 	H 	0.63799 0.33541 0.09251 0.10200
H 	H 	0.61662 0.19425 0.07456 0.04500
O 	O 	0.62725 0.82676 0.85550 -0.41100
Ni	Ni	0.65529 0.81224 0.91667 1.06300
O 	O 	0.66362 0.87320 0.94530 -0.41900
O 	O 	0.65492 0.76307 0.03114 -0.38700
O 	O 	0.66654 0.85502 0.02614 -0.37300
Ni	Ni	0.66027 0.82984 0.41536 1.06500
O 	O 	0.66199 0.88577 0.44983 -0.42100
H 	H 	0.64605 0.92369 0.56711 0.07700
N 	N 	0.66583 0.69474 0.47947 -0.19800
H 	H 	0.65300 0.65877 0.47842 0.07700
H 	H 	0.64221 0.70649 0.47566 0.06800
H 	H 	0.66622 0.68512 0.00240 0.03600
C 	C 	0.68935 0.47925 0.47993 -0.04700
C 	C 	0.66198 0.41319 0.55524 -0.04700
H 	H 	0.65070 0.38823 0.58530 0.04900
C 	C 	0.68176 0.27902 0.55807 0.10900
C 	C 	0.67828 0.19388 0.53636 0.10200
N 	N 	0.67570 0.15208 0.52802 -0.19800
N 	N 	0.68603 0.32175 0.56432 -0.20200
H 	H 	0.66300 0.33005 0.54784 0.10400
C 	C 	0.67902 0.39925 0.05670 0.10500
C 	C 	0.69163 0.47951 0.00801 0.10100
N 	N 	0.69554 0.51959 0.99019 -0.19600
N 	N 	0.67149 0.36296 0.08602 -0.20200
H 	H 	0.66751 0.51929 0.97269 0.08100
C 	C 	0.64952 0.22031 0.05877 -0.04100
C 	C 	0.65167 0.25698 0.03083 -0.09300
H 	H 	0.66934 0.32846 0.97228 0.08500
H 	H 	0.65425 0.15415 0.10533 0.07800
C 	C 	0.67764 0.88618 0.99086 0.29600
C 	C 	0.68818 0.77450 0.99792 0.29100
O 	O 	0.69927 0.80943 0.96718 -0.41900
O 	O 	0.66932 0.78079 0.52802 -0.37500
C 	C 	0.67910 0.89861 0.49444 0.29700
C 	C 	0.69917 0.79318 0.49061 0.28000
O 	O 	0.67108 0.86722 0.52856 -0.36900
N 	N 	0.67391 0.95745 0.57158 -0.19700
H 	H 	0.67176 0.97804 0.60005 0.07400
H 	H 	0.66731 0.94549 0.05113 0.03300
H 	H 	0.68711 0.01888 0.08824 0.07400
C 	C 	0.70338 0.70875 0.00383 -0.04600
H 	H 	0.68000 0.62126 0.00999 0.07700
C 	C 	0.72207 0.48401 0.51565 -0.09900
C 	C 	0.70821 0.44982 0.55353 0.10800
H 	H 	0.69870 0.50622 0.45235 0.04700
C 	C 	0.71963 0.27306 0.56867 -0.04700
C 	C 	0.71990 0.23271 0.55309 -0.09500
H 	H 	0.70320 0.14683 0.53703 0.07500
H 	H 	0.71488 0.34839 0.58242 0.08500
C 	C 	0.72294 0.43991 0.05610 -0.04500
C 	C 	0.73016 0.47927 0.02947 -0.09300
H 	H 	0.72563 0.55167 0.99573 0.07200
H 	H 	0.69890 0.36345 0.10509 0.09000
C 	C 	0.68912 0.21578 0.06428 0.10200
C 	C 	0.69497 0.29162 0.01123 0.10100
N 	N 	0.69852 0.32746 0.98373 -0.20100
N 	N 	0.68602 0.17933 0.09029 -0.20000
H 	H 	0.71524 0.17624 0.09683 0.07800
H 	H 	0.73098 0.35415 0.97189 0.08200
O 	O 	0.70775 0.82942 0.46271 -0.41100
H 	H 	0.73932 0.13891 0.78677 0.08100
H 	H 	0.73717 0.13442 0.29136 0.08000
C 	C 	0.71564 0.94726 0.50279 -0.09100
C 	C 	0.71162 0.97501 0.54080 0.09800
C 	C 	0.70082 0.96200 0.03249 -0.04400
C 	C 	0.71257 0.93544 0.00091 -0.09400
C 	C 	0.73157 0.01001 0.03930 0.09500
N 	N 	0.71938 0.03499 0.07022 -0.19800
C 	C 	0.74309 0.70762 0.48022 -0.04600
C 	C 	0.73020 0.77363 0.48681 -0.09500
C 	C 	0.71230 0.72491 0.48260 0.09400
H 	H 	0.72958 0.67026 0.47935 0.03400
C 	C 	0.73357 0.69073 0.00602 0.09700
C 	C 	0.72075 0.75699 0.00413 -0.10200
N 	N 	0.71580 0.64405 0.01162 -0.19700
H 	H 	0.73690 0.63028 0.02083 0.06600
H 	H 	0.74171 0.54839 0.71688 0.08300
N 	N 	0.73962 0.44906 0.58470 -0.20000
H 	H 	0.72846 0.42962 0.61742 0.08400
H 	H 	0.75111 0.30220 0.58339 0.05700
H 	H 	0.75176 0.44024 0.07486 0.05700
C 	C 	0.73471 0.28832 0.01930 -0.04400
C 	C 	0.73162 0.24923 0.04246 -0.09300
O 	O 	0.78750 0.52694 0.96886 -0.41900
C 	C 	0.77809 0.51526 0.01562 0.28900
O 	O 	0.78676 0.53797 0.46534 -0.42800
C 	C 	0.77097 0.52250 0.50988 0.29700
O 	O 	0.77977 0.23113 0.99196 -0.42800
C 	C 	0.77073 0.24061 0.03646 0.29900
O 	O 	0.77453 0.23191 0.49553 -0.42800
C 	C 	0.76492 0.23616 0.54183 0.29500
N 	N 	0.76731 0.15595 0.81101 -0.20000
H 	H 	0.76155 0.14727 0.84862 0.09800
N 	N 	0.76381 0.15757 0.31473 -0.20000
H 	H 	0.75733 0.15494 0.35296 0.09800
C 	C 	0.75500 0.96638 0.47177 -0.04900
C 	C 	0.74648 0.02190 0.54573 -0.04100
H 	H 	0.75865 0.94466 0.44365 0.03800
H 	H 	0.74294 0.04370 0.57384 0.02100
C 	C 	0.75691 0.95676 0.97754 0.10300
N 	N 	0.77081 0.93133 0.94967 -0.19900
H 	H 	0.74196 0.07032 0.07733 0.05200
H 	H 	0.75061 0.89522 0.94676 0.08200
N 	N 	0.77226 0.57413 0.70020 -0.19800
H 	H 	0.77865 0.56374 0.79560 0.05000
H 	H 	0.77078 0.58268 0.66328 0.08100
H 	H 	0.77364 0.46074 0.57295 0.10800
H 	H 	0.76769 0.31468 0.00404 0.04400
H 	H 	0.76489 0.84726 0.02794 0.10600
O 	O 	0.81195 0.52842 0.04791 -0.37200
H 	H 	0.80670 0.60923 0.04921 0.15000
O 	O 	0.79894 0.53827 0.54845 -0.37500
H 	H 	0.80026 0.62089 0.53853 0.15200
H 	H 	0.79672 0.17083 0.06582 0.14900
O 	O 	0.80336 0.25694 0.07040 -0.37100
H 	H 	0.79976 0.17359 0.56857 0.15100
O 	O 	0.79856 0.25606 0.57454 -0.37200
H 	H 	0.78847 0.17537 0.71672 0.03300
H 	H 	0.78499 0.16735 0.21973 0.02900
C 	C 	0.78433 0.04165 0.51268 -0.10500
C 	C 	0.78955 0.01331 0.47649 0.12000
C 	C 	0.78729 0.00480 0.98386 -0.03500
C 	C 	0.77479 0.03167 0.01382 -0.09300
H 	H 	0.80309 0.94762 0.93167 0.08100
C 	C 	0.79115 0.73808 0.47893 -0.10700
C 	C 	0.77829 0.80409 0.48494 -0.05000
H 	H 	0.79191 0.84144 0.48685 0.05200
C 	C 	0.78214 0.72165 0.00428 -0.09800
C 	C 	0.76916 0.78785 0.00850 0.10900
N 	N 	0.78646 0.83415 0.01728 -0.20100
H 	H 	0.79912 0.66431 0.22089 0.07500
O 	O 	0.80893 0.67403 0.96380 -0.37700
O 	O 	0.82679 0.56532 0.87774 -0.41200
C 	C 	0.81478 0.70385 0.99957 0.28600
O 	O 	0.81848 0.68746 0.44837 -0.38300
O 	O 	0.83573 0.57316 0.37781 -0.41000
C 	C 	0.82212 0.71845 0.48167 0.28800
O 	O 	0.81756 0.23034 0.89791 -0.41500
O 	O 	0.80257 0.10769 0.97934 -0.37800
C 	C 	0.80550 0.08267 0.01524 0.28400
O 	O 	0.81304 0.24010 0.39974 -0.41400
O 	O 	0.80505 0.11600 0.47805 -0.38100
C 	C 	0.81361 0.09259 0.51137 0.28700
C 	C 	0.81024 0.18701 0.79328 0.11000
C 	C 	0.81736 0.19413 0.74183 -0.05100
C 	C 	0.80553 0.18988 0.29537 0.11100
C 	C 	0.81268 0.19171 0.24372 -0.05100
H 	H 	0.82069 0.02140 0.96499 0.05300
H 	H 	0.83196 0.44364 0.65059 0.08300
C 	C 	0.80884 0.78683 0.47857 0.10900
C 	C 	0.79950 0.76993 0.00607 -0.04800
C 	C 	0.81092 0.58913 0.77805 -0.04200
C 	C 	0.81199 0.59729 0.72698 0.10300
N 	N 	0.81705 0.65039 0.20185 -0.19700
H 	H 	0.82297 0.65036 0.29874 0.05200
H 	H 	0.81278 0.64590 0.16342 0.04300
O 	O 	0.83961 0.62733 0.03858 -0.70500
Ni	Ni	0.84554 0.63988 0.96488 1.09700
Ni	Ni	0.84982 0.54394 0.93787 1.06300
C 	C 	0.84689 0.60813 0.86097 0.28700
O 	O 	0.83426 0.63756 0.53302 -0.70400
Ni	Ni	0.85045 0.64977 0.46006 1.09800
O 	O 	0.85111 0.59723 0.62448 -0.37500
O 	O 	0.85191 0.50942 0.49865 -0.42000
Ni	Ni	0.85017 0.55036 0.44319 1.06300
Ni	Ni	0.83832 0.17866 0.98308 1.09700
Ni	Ni	0.84023 0.27669 0.95751 1.06300
O 	O 	0.84261 0.10062 0.04365 -0.40500
O 	O 	0.83001 0.18494 0.05702 -0.70100
C 	C 	0.84079 0.21101 0.87990 0.28500
O 	O 	0.85247 0.32844 0.00761 -0.41600
Ni	Ni	0.83744 0.18661 0.48251 1.09700
O 	O 	0.84067 0.18989 0.40624 -0.37100
Ni	Ni	0.83338 0.28256 0.46259 1.06300
O 	O 	0.83249 0.19071 0.55715 -0.70300
C 	C 	0.83601 0.22088 0.38073 0.28500
O 	O 	0.84228 0.33069 0.51592 -0.41400
C 	C 	0.84808 0.21161 0.82588 -0.09600
C 	C 	0.84197 0.22159 0.32651 -0.09500
N 	N 	0.82760 0.03088 0.44624 -0.20200
H 	H 	0.83061 0.00999 0.41872 0.08500
H 	H 	0.85309 0.38982 0.61726 0.05200
N 	N 	0.85131 0.46803 0.62317 -0.20300
H 	H 	0.85318 0.50039 0.62486 0.10700
H 	H 	0.86185 0.40641 0.15096 0.08600
H 	H 	0.83668 0.79362 0.00644 0.05100
H 	H 	0.82229 0.85706 0.01716 0.08400
C 	C 	0.85064 0.61478 0.80707 -0.09500
C 	C 	0.84325 0.63773 0.27913 -0.03800
C 	C 	0.84322 0.63652 0.22714 0.09600
O 	O 	0.86122 0.50453 0.98787 -0.41200
Ni	Ni	0.87421 0.59112 0.04495 1.09700
O 	O 	0.87037 0.58893 0.12108 -0.37100
O 	O 	0.84864 0.64179 0.88880 -0.36700
O 	O 	0.85380 0.72401 0.02497 -0.41400
Ni	Ni	0.86379 0.59823 0.54967 1.09700
Ni	Ni	0.86481 0.69810 0.56741 1.06400
O 	O 	0.86381 0.65124 0.38537 -0.37000
C 	C 	0.85867 0.63433 0.65007 0.28800
C 	C 	0.86012 0.61545 0.36001 0.29100
O 	O 	0.85691 0.73623 0.51328 -0.41800
Ni	Ni	0.86519 0.25602 0.06510 1.09600
O 	O 	0.84705 0.18195 0.90713 -0.36800
O 	O 	0.86187 0.25540 0.14154 -0.37200
Ni	Ni	0.85884 0.15403 0.09276 1.06500
C 	C 	0.86232 0.22300 0.16896 0.28400
O 	O 	0.86957 0.25741 0.49290 -0.70600
Ni	Ni	0.86300 0.26118 0.56747 1.09600
O 	O 	0.85304 0.11302 0.53606 -0.40900
O 	O 	0.86055 0.25708 0.64385 -0.36900
C 	C 	0.86826 0.22745 0.66824 0.28300
C 	C 	0.86166 0.22420 0.72246 -0.09600
C 	C 	0.85541 0.22424 0.22285 -0.09400
H 	H 	0.85504 0.06495 0.45054 0.10700
C 	C 	0.87469 0.45807 0.58779 0.11200
C 	C 	0.87405 0.41541 0.58939 -0.04500
N 	N 	0.85456 0.81698 0.46956 -0.20100
N 	N 	0.87576 0.39415 0.12360 -0.20200
H 	H 	0.88060 0.47369 0.10302 0.05600
H 	H 	0.87672 0.36380 0.13089 0.11000
C 	C 	0.85411 0.63047 0.70432 -0.09800
C 	C 	0.86709 0.62038 0.30611 -0.09100
C 	C 	0.86931 0.61958 0.20174 -0.09400
Ni	Ni	0.87202 0.68822 0.07235 1.06400
O 	O 	0.88165 0.60501 0.97148 -0.70500
C 	C 	0.87596 0.62469 0.14786 0.29000
O 	O 	0.88315 0.67598 0.63071 -0.41400
O 	O 	0.88107 0.61131 0.47704 -0.70400
O 	O 	0.89459 0.55929 0.56101 -0.39400
C 	C 	0.88456 0.52300 0.53253 0.29200
O 	O 	0.87290 0.24960 0.99139 -0.70600
O 	O 	0.88264 0.20019 0.15246 -0.40700
C 	C 	0.88986 0.35048 0.03542 0.29100
Ni	Ni	0.86903 0.16524 0.58674 1.06500
C 	C 	0.88016 0.35424 0.54262 0.28700
C 	C 	0.88450 0.25453 0.30559 -0.05000
H 	H 	0.87644 0.80525 0.45594 0.09700
H 	H 	0.86785 0.85295 0.47245 0.08200
C 	C 	0.89583 0.46157 0.07491 -0.04500
C 	C 	0.89422 0.41878 0.08113 0.11500
C 	C 	0.89288 0.60304 0.28073 0.09700
C 	C 	0.89319 0.60222 0.22864 -0.03700
O 	O 	0.89336 0.33189 0.57240 -0.38500
O 	O 	0.89825 0.66679 0.12934 -0.40900
O 	O 	0.90962 0.55588 0.04615 -0.39000
C 	C 	0.89780 0.51971 0.01689 0.29000
O 	O 	0.90018 0.17881 0.98486 -0.37000
O 	O 	0.90041 0.32706 0.06689 -0.38900
O 	O 	0.90006 0.18830 0.47625 -0.37300
O 	O 	0.89229 0.21015 0.64746 -0.41200
H 	H 	0.90250 0.27493 0.48257 0.15200
C 	C 	0.89252 0.24114 0.80648 -0.05200
C 	C 	0.89965 0.24834 0.75504 0.11000
C 	C 	0.89175 0.25615 0.25397 0.11100
C 	C 	0.89850 0.48941 0.54838 -0.10100
C 	C 	0.89656 0.40374 0.55242 -0.09000
C 	C 	0.91280 0.48648 0.03057 -0.08900
C 	C 	0.91017 0.40106 0.04217 -0.10100
C 	C 	0.89247 0.64887 0.78468 0.10100
C 	C 	0.89363 0.65675 0.73350 -0.04200
H 	H 	0.91467 0.62358 0.96141 0.15000
O 	O 	0.90597 0.70379 0.96022 -0.36900
H 	H 	0.91510 0.62816 0.47175 0.15300
O 	O 	0.91339 0.71144 0.46048 -0.37300
H 	H 	0.90588 0.26497 0.98096 0.15500
H 	H 	0.91213 0.27897 0.32956 0.03000
H 	H 	0.91347 0.58962 0.20897 0.05100
N 	N 	0.91836 0.58839 0.30609 -0.19700
H 	H 	0.92186 0.59201 0.34465 0.05400
C 	C 	0.92703 0.48075 0.51645 -0.04500
C 	C 	0.92632 0.43802 0.51820 0.08900
O 	O 	0.92918 0.71410 0.54300 -0.41900
O 	O 	0.92425 0.19341 0.06494 -0.39200
O 	O 	0.93013 0.21143 0.55332 -0.41100
H 	H 	0.92139 0.25994 0.83162 0.03400
C 	C 	0.93578 0.47272 0.99570 0.09300
C 	C 	0.93452 0.43004 0.00201 -0.04700
H 	H 	0.92592 0.68210 0.71597 0.05000
N 	N 	0.93186 0.67320 0.81177 -0.19900
H 	H 	0.93308 0.66596 0.84922 0.07900
H 	H 	0.93630 0.57448 0.28705 0.07600
O 	O 	0.93418 0.70827 0.03799 -0.41400
C 	C 	0.94116 0.71857 0.99075 0.29000
C 	C 	0.94308 0.72689 0.49735 0.29500
C 	C 	0.93237 0.20340 0.01765 0.27400
C 	C 	0.93551 0.21407 0.50493 0.28600
H 	H 	0.93308 0.25118 0.41673 0.08500
N 	N 	0.94267 0.27925 0.73735 -0.20000
N 	N 	0.93361 0.28821 0.23465 -0.20000
H 	H 	0.94027 0.29052 0.19647 0.09900
H 	H 	0.94724 0.50586 0.48789 0.02400
H 	H 	0.94915 0.41765 0.97351 0.02500
H 	H 	0.94208 0.79542 0.45256 0.10300
H 	H 	0.94941 0.27936 0.06202 0.03500
H 	H 	0.94853 0.28800 0.69976 0.09800
N 	N 	0.95351 0.42975 0.48638 -0.20200
H 	H 	0.95534 0.39923 0.48868 0.06500
N 	N 	0.95864 0.50002 0.95604 -0.20100
H 	H 	0.95210 0.79578 0.02710 0.08900
H 	H 	0.96019 0.31146 0.25802 0.08100
H 	H 	0.96228 0.53304 0.95210 0.06300
H 	H 	0.96232 0.69908 0.79506 0.08400
N 	N 	0.96717 0.27814 0.42046 -0.20600
H 	H 	0.97068 0.29602 0.76160 0.08200
H 	H 	0.97438 0.45465 0.46005 0.07100
H 	H 	0.97454 0.48909 0.92960 0.07200
N 	N 	0.97630 0.81174 0.43986 -0.19700
C 	C 	0.98313 0.23690 0.48386 -0.08700
H 	H 	0.97826 0.30755 0.39816 0.07000
C 	C 	0.98023 0.23674 0.00094 -0.07700
H 	H 	0.98245 0.18795 0.94885 0.06200
N 	N 	0.98501 0.29797 0.05495 -0.18400
H 	H 	0.98718 0.83969 0.41543 0.08500
C 	C 	0.99271 0.76020 0.48770 -0.08800
C 	C 	0.98814 0.75354 0.97359 -0.08300
H 	H 	0.99358 0.70534 0.92345 0.03300
N 	N 	0.98813 0.81487 0.02312 -0.19400
C 	C 	0.99810 0.27306 0.44836 0.09800
