data_crystal

_cell_length_a 28.05240
_cell_length_b 24.72094
_cell_length_c 65.67440
_cell_angle_alpha 90.52032
_cell_angle_beta  91.54234
_cell_angle_gamma 110.96852

_symmetry_space_group_name_	'P 1'
_symmetry_space_group_name_H-M	'P 1'

loop_
_symmetry_equiv_pos_as_xyz
  x,y,z

loop_
_atom_site_label
_atom_site_type_symbol
_atom_site_fract_x
_atom_site_fract_y
_atom_site_fract_z
_atom_site_charge
Ni	Ni	0.70862 0.31672 0.90341 1.09900
O 	O 	0.64372 0.26447 0.88824 -0.70300
Ni	Ni	0.59042 0.27289 0.90624 1.10100
O 	O 	0.75292 0.30005 0.88172 -0.37400
O 	O 	0.71508 0.20233 0.88615 -0.41300
O 	O 	0.69957 0.38021 0.88585 -0.40600
Ni	Ni	0.63630 0.18368 0.88616 1.06400
O 	O 	0.73574 0.39391 0.94679 -0.41800
O 	O 	0.63858 0.17616 0.91696 -0.42300
O 	O 	0.52930 0.22730 0.88792 -0.37100
O 	O 	0.65551 0.31403 0.92340 -0.70300
O 	O 	0.77287 0.37538 0.91762 -0.38200
O 	O 	0.54545 0.30486 0.92318 -0.35900
O 	O 	0.60232 0.39737 0.92035 -0.41900
Ni	Ni	0.66995 0.39364 0.93294 1.07000
H 	H 	0.64006 0.27910 0.87452 0.15400
H 	H 	0.65844 0.29006 0.93501 0.16200
C 	C 	0.59714 0.16726 0.92718 0.31800
O 	O 	0.71269 0.44794 0.91133 -0.39700
C 	C 	0.74682 0.24644 0.87632 0.27300
C 	C 	0.52849 0.17944 0.87842 0.27300
C 	C 	0.71368 0.43432 0.89199 0.31200
C 	C 	0.55753 0.36112 0.92589 0.28800
C 	C 	0.77638 0.39415 0.93680 0.31600
O 	O 	0.57135 0.20228 0.92511 -0.35600
O 	O 	0.55786 0.15106 0.88519 -0.40800
Ni	Ni	0.63692 0.31557 0.50158 1.10000
O 	O 	0.70042 0.33045 0.48466 -0.70000
Ni	Ni	0.74535 0.30512 0.50367 1.09900
O 	O 	0.60941 0.36841 0.48485 -0.38100
O 	O 	0.68533 0.44418 0.48830 -0.40000
O 	O 	0.59372 0.24860 0.48206 -0.36700
Ni	Ni	0.73747 0.41046 0.47663 1.07200
O 	O 	0.57063 0.20024 0.52165 -0.40000
O 	O 	0.78885 0.45196 0.49995 -0.39300
O 	O 	0.81423 0.33413 0.48923 -0.37900
O 	O 	0.67846 0.28157 0.51899 -0.69800
O 	O 	0.57557 0.29476 0.51981 -0.37500
O 	O 	0.77633 0.26501 0.52471 -0.37300
O 	O 	0.70937 0.17992 0.51946 -0.41100
Ni	Ni	0.64269 0.19808 0.52014 1.06700
H 	H 	0.69201 0.30490 0.47237 0.15700
H 	H 	0.68360 0.29899 0.53289 0.15400
C 	C 	0.79955 0.42738 0.51627 0.30400
O 	O 	0.63744 0.18910 0.48943 -0.42400
C 	C 	0.63666 0.42356 0.48264 0.29400
C 	C 	0.60097 0.19929 0.47929 0.31800
C 	C 	0.75070 0.21139 0.52997 0.28000
C 	C 	0.56056 0.24467 0.52921 0.28000
O 	O 	0.76793 0.37719 0.52207 -0.40300
O 	O 	0.79185 0.38588 0.46398 -0.41900
Ni	Ni	0.01662 0.94932 0.72032 1.09700
O 	O 	0.03490 0.88710 0.70555 -0.71300
Ni	Ni	0.06833 0.92988 0.68107 1.09900
O 	O 	0.08387 0.97275 0.73768 -0.37000
O 	O 	0.07980 0.07610 0.73121 -0.41400
O 	O 	0.08576 0.86347 0.66883 -0.38000
O 	O 	0.04478 0.99130 0.69454 -0.68900
O 	O 	0.99810 0.01308 0.73380 -0.38500
O 	O 	0.11337 0.98348 0.65994 -0.36400
O 	O 	0.13383 0.07367 0.67419 -0.40700
Ni	Ni	0.10150 0.06247 0.70271 1.06400
H 	H 	0.05820 0.87293 0.71363 0.15300
H 	H 	0.01833 0.00071 0.68667 0.14500
O 	O 	0.14162 0.01385 0.71312 -0.44000
C 	C 	0.04974 0.81188 0.66590 0.28000
C 	C 	0.13000 0.98561 0.73027 0.28500
C 	C 	0.14750 0.03501 0.66444 0.27900
C 	C 	0.03189 0.06578 0.73571 0.28400
O 	O 	0.00835 0.91011 0.66031 -0.37600
Ni	Ni	0.25461 0.65744 0.40283 1.10000
O 	O 	0.31813 0.70851 0.38840 -0.70300
Ni	Ni	0.37310 0.70730 0.40815 1.10200
O 	O 	0.20876 0.66695 0.37947 -0.36900
O 	O 	0.24323 0.76584 0.38277 -0.41000
O 	O 	0.26492 0.59170 0.38660 -0.39600
Ni	Ni	0.32252 0.78756 0.38429 1.07000
O 	O 	0.23085 0.59084 0.44682 -0.42000
O 	O 	0.32204 0.80361 0.41472 -0.41400
O 	O 	0.43285 0.75052 0.39049 -0.37400
O 	O 	0.30913 0.66790 0.42439 -0.70300
O 	O 	0.19128 0.60009 0.41623 -0.36800
O 	O 	0.42021 0.68164 0.42712 -0.37700
O 	O 	0.36558 0.58749 0.42473 -0.40900
Ni	Ni	0.29820 0.59185 0.43581 1.06900
H 	H 	0.32205 0.69102 0.37523 0.15400
H 	H 	0.30563 0.69431 0.43518 0.15800
C 	C 	0.36438 0.81681 0.42573 0.31900
O 	O 	0.25693 0.53302 0.41388 -0.39800
C 	C 	0.21164 0.71857 0.37335 0.27200
C 	C 	0.43133 0.79456 0.37946 0.27100
C 	C 	0.26110 0.54155 0.39422 0.30900
C 	C 	0.41057 0.62617 0.43009 0.29100
C 	C 	0.18916 0.58083 0.43512 0.31300
O 	O 	0.39078 0.78215 0.42574 -0.37000
O 	O 	0.40090 0.82297 0.38442 -0.39100
Ni	Ni	0.33943 0.67358 0.99973 1.10200
O 	O 	0.27070 0.65641 0.98487 -0.70500
Ni	Ni	0.23068 0.67667 0.00658 1.10100
O 	O 	0.36207 0.62107 0.98104 -0.36800
O 	O 	0.28834 0.54387 0.98552 -0.41800
O 	O 	0.37452 0.74061 0.98030 -0.36900
Ni	Ni	0.23334 0.57711 0.97541 1.06900
O 	O 	0.40942 0.79118 0.01952 -0.41300
O 	O 	0.18667 0.53814 0.99883 -0.40100
O 	O 	0.15697 0.64202 0.99449 -0.37600
O 	O 	0.30277 0.70544 0.01950 -0.70100
O 	O 	0.40653 0.69724 0.01601 -0.37000
O 	O 	0.20566 0.71614 0.02947 -0.36700
O 	O 	0.26710 0.80361 0.02273 -0.41200
Ni	Ni	0.33569 0.78915 0.02098 1.06500
H 	H 	0.27409 0.68299 0.97337 0.16500
H 	H 	0.30372 0.68894 0.03312 0.15300
C 	C 	0.19600 0.55189 0.01829 0.30300
O 	O 	0.33044 0.79677 0.99042 -0.42300
C 	C 	0.33592 0.56512 0.97955 0.29400
C 	C 	0.14271 0.61077 0.97733 0.32200
C 	C 	0.36464 0.78868 0.97892 0.32300
C 	C 	0.22894 0.77181 0.03377 0.27200
C 	C 	0.42512 0.74868 0.02523 0.27400
O 	O 	0.21945 0.60591 0.02444 -0.39700
O 	O 	0.17649 0.60312 0.96503 -0.41600
O 	O 	0.99762 0.05714 0.25744 -0.37200
O 	O 	0.05486 0.10089 0.23330 -0.41900
Ni	Ni	0.01456 0.13297 0.21268 1.06500
O 	O 	0.04695 0.10536 0.18868 -0.40100
C 	C 	0.02473 0.05863 0.17721 0.30200
C 	C 	0.04241 0.09419 0.25252 0.26900
C 	C 	0.17173 0.50779 0.03351 -0.09000
C 	C 	0.12455 0.46356 0.02888 0.01900
C 	C 	0.10034 0.42347 0.04363 -0.06700
C 	C 	0.12299 0.42714 0.06315 0.02800
C 	C 	0.17035 0.47087 0.06774 -0.06800
C 	C 	0.19462 0.51104 0.05299 0.01700
C 	C 	0.09682 0.38563 0.07885 -0.00200
C 	C 	0.04965 0.38433 0.08592 -0.03500
C 	C 	0.02502 0.34528 0.10091 -0.04600
C 	C 	0.04736 0.30723 0.10895 -0.00000
C 	C 	0.09441 0.30834 0.10180 -0.03900
C 	C 	0.11902 0.34737 0.08680 -0.03800
C 	C 	0.02218 0.26720 0.12520 0.03100
C 	C 	0.98570 0.16924 0.13770 0.02700
C 	C 	0.00614 0.20710 0.12185 -0.07800
H 	H 	0.10620 0.46084 0.01398 0.03700
H 	H 	0.06386 0.38973 0.03993 0.04900
H 	H 	0.18813 0.47402 0.08277 0.04400
H 	H 	0.23111 0.54470 0.05673 0.02600
H 	H 	0.03227 0.41378 0.07989 0.03800
H 	H 	0.98869 0.34467 0.10632 0.04500
H 	H 	0.11205 0.27930 0.10798 0.03800
H 	H 	0.15532 0.34791 0.08138 0.03800
H 	H 	0.97465 0.12300 0.13506 0.03100
H 	H 	0.01028 0.18979 0.10706 0.04700
C 	C 	0.80104 0.90864 0.15302 -0.08700
C 	C 	0.75914 0.85689 0.15508 0.01200
C 	C 	0.72407 0.83495 0.13883 -0.06700
C 	C 	0.73061 0.86452 0.12039 0.02700
C 	C 	0.77415 0.91414 0.11788 -0.06600
C 	C 	0.80933 0.93607 0.13410 0.01600
C 	C 	0.68914 0.84775 0.10476 -0.00000
C 	C 	0.67818 0.79648 0.09321 -0.03800
C 	C 	0.63717 0.77938 0.07904 -0.03800
C 	C 	0.60668 0.81330 0.07644 -0.00000
C 	C 	0.61798 0.86479 0.08791 -0.03800
C 	C 	0.65910 0.88200 0.10196 -0.03800
C 	C 	0.56214 0.79430 0.06212 0.02600
C 	C 	0.52207 0.74142 0.06494 -0.06600
C 	C 	0.47774 0.72593 0.05256 0.01100
C 	C 	0.47291 0.76345 0.03741 -0.08600
C 	C 	0.51358 0.81555 0.03420 0.01500
C 	C 	0.55807 0.83078 0.04645 -0.06600
H 	H 	0.75292 0.83465 0.16946 0.01400
H 	H 	0.69075 0.79627 0.14082 0.04300
H 	H 	0.77972 0.93690 0.10361 0.04900
H 	H 	0.70123 0.76980 0.09530 0.03800
H 	H 	0.62891 0.73972 0.07018 0.04000
H 	H 	0.59446 0.89105 0.08611 0.03700
H 	H 	0.66719 0.92151 0.11090 0.04000
H 	H 	0.52482 0.71299 0.07701 0.04400
H 	H 	0.44668 0.68545 0.05506 0.02400
H 	H 	0.51070 0.84426 0.02225 0.03400
H 	H 	0.58906 0.87133 0.04399 0.04800
C 	C 	0.20531 0.80097 0.04775 -0.08600
C 	C 	0.19042 0.77824 0.06704 0.00800
C 	C 	0.17257 0.80895 0.08106 -0.06500
C 	C 	0.16894 0.86232 0.07579 0.02300
C 	C 	0.18235 0.88411 0.05627 -0.06500
C 	C 	0.20062 0.85372 0.04235 0.01200
C 	C 	0.15133 0.89557 0.09071 0.00500
C 	C 	0.10306 0.87071 0.09915 -0.04400
C 	C 	0.08560 0.90291 0.11268 -0.02900
C 	C 	0.11602 0.96051 0.11774 -0.01700
C 	C 	0.16451 0.98521 0.10948 -0.01700
C 	C 	0.18218 0.95281 0.09609 -0.04800
C 	C 	0.09685 0.99486 0.13163 0.06200
C 	C 	0.12328 0.01730 0.15009 -0.09200
C 	C 	0.10152 0.04283 0.16447 0.02700
C 	C 	0.05300 0.04554 0.16056 -0.09900
C 	C 	0.02806 0.02627 0.14163 0.02200
C 	C 	0.05006 0.00147 0.12716 -0.10000
H 	H 	0.19393 0.73761 0.07137 0.02900
H 	H 	0.16223 0.79169 0.09608 0.04400
H 	H 	0.17886 0.92474 0.05193 0.04700
H 	H 	0.21137 0.87131 0.02740 0.03600
H 	H 	0.07890 0.82666 0.09506 0.04000
H 	H 	0.04835 0.88322 0.11916 0.03600
H 	H 	0.18830 0.02958 0.11330 0.02500
H 	H 	0.21968 0.97225 0.08979 0.04100
H 	H 	0.15964 0.01288 0.15363 0.04700
H 	H 	0.12112 0.05760 0.17905 0.02600
H 	H 	0.99061 0.02821 0.13846 0.03100
H 	H 	0.02985 0.98541 0.11278 0.06000
C 	C 	0.47290 0.82201 0.36541 -0.08100
C 	C 	0.46405 0.85173 0.34845 0.01100
C 	C 	0.50378 0.87977 0.33551 -0.06400
C 	C 	0.55275 0.87853 0.33943 0.02500
C 	C 	0.56165 0.84864 0.35631 -0.06300
C 	C 	0.52191 0.82040 0.36923 0.01600
C 	C 	0.59450 0.90765 0.32568 0.00500
C 	C 	0.59377 0.88547 0.30590 -0.04300
C 	C 	0.63466 0.91117 0.29321 -0.03100
C 	C 	0.67656 0.95944 0.30018 -0.01100
C 	C 	0.67657 0.98264 0.31977 -0.01900
C 	C 	0.63575 0.95674 0.33250 -0.04500
C 	C 	0.72210 0.98243 0.28762 0.04700
C 	C 	0.71764 0.00119 0.26779 -0.08800
C 	C 	0.75861 0.01374 0.25472 0.02000
C 	C 	0.80440 0.00759 0.26138 -0.10700
C 	C 	0.76900 0.98034 0.29474 -0.07700
H 	H 	0.42638 0.85303 0.34528 0.01400
H 	H 	0.49656 0.90260 0.32247 0.04500
H 	H 	0.59934 0.84726 0.35939 0.04900
H 	H 	0.52942 0.79807 0.38235 0.04400
H 	H 	0.56201 0.84766 0.30051 0.03800
H 	H 	0.63439 0.89270 0.27817 0.03600
H 	H 	0.70858 0.02006 0.32526 0.02800
H 	H 	0.63640 0.97441 0.34770 0.04700
H 	H 	0.68189 0.00411 0.26229 0.04600
H 	H 	0.75413 0.02624 0.23922 0.02600
H 	H 	0.77298 0.96635 0.31007 0.05200
C 	C 	0.07755 0.13039 0.26855 -0.09300
C 	C 	0.13048 0.15298 0.26571 0.00700
C 	C 	0.16315 0.19088 0.28031 -0.06800
C 	C 	0.14313 0.20683 0.29778 0.02400
C 	C 	0.09044 0.18276 0.30090 -0.06700
C 	C 	0.05789 0.14460 0.28643 0.00900
C 	C 	0.17631 0.25266 0.31184 -0.00100
C 	C 	0.17556 0.24342 0.33293 -0.03900
C 	C 	0.19670 0.29024 0.34656 -0.03800
C 	C 	0.21946 0.34653 0.33921 -0.00000
C 	C 	0.22470 0.35484 0.31815 -0.03900
C 	C 	0.20290 0.30819 0.30452 -0.03900
C 	C 	0.23109 0.39701 0.35319 0.02600
C 	C 	0.26520 0.40433 0.36993 -0.06500
C 	C 	0.27471 0.45132 0.38349 0.01400
C 	C 	0.25050 0.49148 0.38029 -0.08800
C 	C 	0.21637 0.48403 0.36358 0.01900
C 	C 	0.20657 0.43695 0.35016 -0.06600
H 	H 	0.14626 0.14164 0.25215 0.03000
H 	H 	0.20383 0.20874 0.27785 0.04300
H 	H 	0.07450 0.19507 0.31424 0.04500
H 	H 	0.01717 0.12754 0.28882 0.03300
H 	H 	0.15623 0.20047 0.33874 0.03800
H 	H 	0.19309 0.28319 0.36279 0.03900
H 	H 	0.24330 0.39794 0.31233 0.03700
H 	H 	0.20429 0.31578 0.28829 0.03500
H 	H 	0.28429 0.37372 0.37241 0.04700
H 	H 	0.30128 0.45683 0.39631 0.03600
H 	H 	0.19701 0.51440 0.36112 0.04000
H 	H 	0.17955 0.43117 0.33749 0.04600
C 	C 	0.17147 0.72282 0.35927 -0.08800
C 	C 	0.14947 0.76488 0.36259 0.01300
C 	C 	0.10847 0.76561 0.35017 -0.06700
C 	C 	0.08932 0.72452 0.33429 0.02900
C 	C 	0.11168 0.68302 0.33078 -0.06800
C 	C 	0.15252 0.68208 0.34324 0.01300
C 	C 	0.04759 0.72689 0.32072 -0.01100
C 	C 	0.99777 0.71075 0.32781 -0.02600
C 	C 	0.95947 0.71974 0.31579 -0.04500
C 	C 	0.97095 0.74564 0.29671 0.01100
C 	C 	0.02016 0.75860 0.28919 -0.04900
C 	C 	0.05822 0.74913 0.30114 -0.03200
C 	C 	0.93453 0.76740 0.28610 0.02400
C 	C 	0.92415 0.75655 0.26511 -0.06400
H 	H 	0.16342 0.79625 0.37500 0.03400
H 	H 	0.09167 0.79816 0.35283 0.04700
H 	H 	0.09739 0.65150 0.31843 0.04500
H 	H 	0.16933 0.64957 0.34049 0.03100
H 	H 	0.98912 0.69277 0.34284 0.04000
H 	H 	0.92149 0.70883 0.32164 0.04000
H 	H 	0.02954 0.77868 0.27452 0.04000
H 	H 	0.09651 0.76119 0.29549 0.03500
H 	H 	0.90197 0.78725 0.23719 0.01200
H 	H 	0.93446 0.72348 0.25746 0.04300
C 	C 	0.47347 0.08445 0.46479 -0.11400
C 	C 	0.48903 0.04517 0.45380 -0.00800
C 	C 	0.54071 0.06007 0.44905 0.12600
C 	C 	0.57676 0.11295 0.45608 -0.04000
C 	C 	0.56174 0.15095 0.46809 -0.12700
C 	C 	0.50945 0.13730 0.47188 0.18900
C 	C 	0.45160 0.98740 0.44806 0.01400
O 	O 	0.55600 0.02311 0.43747 -0.28500
H 	H 	0.61670 0.12346 0.45280 0.05500
O 	O 	0.49392 0.17358 0.48370 -0.28100
H 	H 	0.43361 0.07334 0.46832 0.06600
C 	C 	0.44744 0.93914 0.46004 0.11300
C 	C 	0.41600 0.88353 0.45333 -0.02800
C 	C 	0.38811 0.87568 0.43477 -0.12700
C 	C 	0.38973 0.92464 0.42348 0.19800
C 	C 	0.42162 0.98011 0.43013 -0.10600
O 	O 	0.47598 0.94593 0.47782 -0.27500
H 	H 	0.41460 0.84632 0.46223 0.05400
O 	O 	0.36302 0.91805 0.40525 -0.31600
H 	H 	0.42414 0.01731 0.42101 0.06500
H 	H 	0.48538 0.19948 0.47398 0.15400
H 	H 	0.45430 0.95229 0.48858 0.14300
H 	H 	0.32982 0.92104 0.40868 0.14500
H 	H 	0.56521 0.99811 0.44737 0.16400
C 	C 	0.05400 0.47301 0.43672 -0.11500
C 	C 	0.03900 0.48641 0.45572 -0.00500
C 	C 	0.07479 0.52776 0.46872 0.12400
C 	C 	0.12464 0.55692 0.46229 -0.03900
C 	C 	0.13893 0.54529 0.44289 -0.12200
C 	C 	0.10382 0.50170 0.43037 0.19100
O 	O 	0.06145 0.53883 0.48783 -0.28000
H 	H 	0.15168 0.58958 0.47218 0.05300
O 	O 	0.11785 0.48801 0.41172 -0.28200
H 	H 	0.02680 0.44072 0.42677 0.07000
H 	H 	0.13192 0.45710 0.41437 0.14900
H 	H 	0.04958 0.57188 0.48624 0.15300
C 	C 	0.49508 0.53704 0.43455 -0.11800
C 	C 	0.52337 0.56046 0.45250 0.00200
C 	C 	0.51772 0.60881 0.46211 0.12300
C 	C 	0.48252 0.63205 0.45412 -0.04000
C 	C 	0.45219 0.60661 0.43677 -0.12300
C 	C 	0.45981 0.56007 0.42659 0.18900
C 	C 	0.55527 0.53098 0.46213 0.00400
O 	O 	0.54671 0.63355 0.47923 -0.27300
H 	H 	0.47757 0.66857 0.46181 0.05600
O 	O 	0.43189 0.53614 0.40915 -0.29200
H 	H 	0.49960 0.50005 0.42701 0.06900
C 	C 	0.53512 0.48991 0.47728 0.11700
C 	C 	0.56300 0.45682 0.48460 -0.03300
C 	C 	0.61073 0.46365 0.47667 -0.12100
C 	C 	0.63156 0.50595 0.46191 0.18800
C 	C 	0.60391 0.53968 0.45481 -0.11200
O 	O 	0.48812 0.48207 0.48493 -0.28100
H 	H 	0.54705 0.42501 0.49619 0.06000
O 	O 	0.67857 0.51392 0.45425 -0.30400
H 	H 	0.61965 0.57139 0.44317 0.07400
H 	H 	0.45232 0.55813 0.39783 0.14500
H 	H 	0.46332 0.45153 0.47611 0.14300
H 	H 	0.67164 0.48748 0.44219 0.12900
H 	H 	0.52619 0.61362 0.49085 0.15200
C 	C 	0.81501 0.03658 0.58785 -0.03200
C 	C 	0.76988 0.18497 0.54674 -0.09700
C 	C 	0.73523 0.14203 0.55838 0.01600
C 	C 	0.75304 0.11401 0.57347 -0.07100
H 	H 	0.00655 0.00532 0.64484 0.01500
H 	H 	0.79399 0.01536 0.57415 0.03800
H 	H 	0.82763 0.96031 0.59805 0.05000
H 	H 	0.69446 0.13012 0.55563 0.00200
H 	H 	0.72598 0.08038 0.58217 0.04400
C 	C 	0.52293 0.23400 0.54521 -0.08900
C 	C 	0.47772 0.24513 0.54183 0.02200
C 	C 	0.43908 0.22773 0.55603 -0.06700
C 	C 	0.44560 0.19947 0.57377 0.02800
C 	C 	0.49180 0.19086 0.57755 -0.06800
C 	C 	0.53013 0.20770 0.56327 0.01200
C 	C 	0.40288 0.17519 0.58762 -0.00100
C 	C 	0.38160 0.21160 0.59736 -0.03900
C 	C 	0.34101 0.18835 0.61043 -0.03900
C 	C 	0.32155 0.12854 0.61392 -0.00100
C 	C 	0.34317 0.09227 0.60433 -0.03900
C 	C 	0.38347 0.11543 0.59117 -0.03800
C 	C 	0.27738 0.10357 0.62703 0.02600
C 	C 	0.23202 0.06215 0.61898 -0.06600
C 	C 	0.19002 0.03865 0.63130 0.01400
C 	C 	0.19286 0.05660 0.65181 -0.08400
C 	C 	0.23840 0.09768 0.65990 0.01000
C 	C 	0.28052 0.12098 0.64758 -0.06600
H 	H 	0.47176 0.26531 0.52789 0.04000
H 	H 	0.40357 0.23467 0.55298 0.04800
H 	H 	0.49749 0.16984 0.59132 0.04300
H 	H 	0.56509 0.19933 0.56607 0.00400
H 	H 	0.39648 0.25782 0.59480 0.03800
H 	H 	0.32441 0.21667 0.61769 0.03800
H 	H 	0.32853 0.04609 0.60698 0.03700
H 	H 	0.39949 0.08693 0.58366 0.03800
H 	H 	0.22917 0.04861 0.60311 0.04600
H 	H 	0.15496 0.00747 0.62478 0.03900
H 	H 	0.24110 0.11165 0.67572 0.02100
H 	H 	0.31553 0.15257 0.65397 0.04300
C 	C 	0.84166 0.46174 0.53043 -0.08600
C 	C 	0.85959 0.43398 0.54582 0.01400
C 	C 	0.89659 0.46662 0.56019 -0.06300
C 	C 	0.04688 0.71264 0.65802 0.00900
H 	H 	0.84433 0.38720 0.54684 0.03900
H 	H 	0.90890 0.44491 0.57239 0.04600
H 	H 	0.04153 0.70162 0.67394 0.01100
H 	H 	0.02296 0.62367 0.64789 0.04200
C 	C 	0.98359 0.51972 0.96361 0.02500
C 	C 	0.00381 0.51923 0.98339 0.09800
C 	C 	0.05571 0.54974 0.98780 -0.02500
C 	C 	0.08777 0.58103 0.97258 -0.13000
C 	C 	0.06736 0.58205 0.95281 0.19900
C 	C 	0.01534 0.55171 0.94845 -0.13300
O 	O 	0.97330 0.48733 0.99825 -0.26900
H 	H 	0.07122 0.54827 0.00300 0.05700
O 	O 	0.09765 0.61440 0.93799 -0.29100
H 	H 	0.99975 0.55269 0.93323 0.08400
H 	H 	0.95944 0.51423 0.00508 0.14300
H 	H 	0.11022 0.58728 0.93056 0.14700
C 	C 	0.51245 0.05167 0.96090 -0.11500
C 	C 	0.50864 0.00136 0.94987 -0.00500
C 	C 	0.53863 0.00543 0.93274 0.11300
C 	C 	0.57031 0.05982 0.92618 -0.02800
C 	C 	0.57224 0.11051 0.93659 -0.12700
C 	C 	0.54434 0.10613 0.95440 0.19400
C 	C 	0.47205 0.94466 0.95593 0.01500
O 	O 	0.53491 0.95656 0.92174 -0.26800
H 	H 	0.59155 0.06269 0.91244 0.03500
O 	O 	0.54682 0.15508 0.96507 -0.28400
H 	H 	0.49006 0.04864 0.97432 0.06600
C 	C 	0.48918 0.90585 0.96671 0.11300
C 	C 	0.45404 0.85286 0.97288 -0.03100
C 	C 	0.40147 0.83901 0.96899 -0.12900
C 	C 	0.38445 0.87743 0.95785 0.19400
C 	C 	0.41980 0.92979 0.95121 -0.11700
O 	O 	0.54026 0.91957 0.97118 -0.27400
H 	H 	0.46751 0.82365 0.98148 0.06700
O 	O 	0.33348 0.86326 0.95302 -0.29100
H 	H 	0.40652 0.95920 0.94264 0.08100
H 	H 	0.57529 0.16208 0.97524 0.14000
H 	H 	0.54637 0.93971 0.98466 0.14100
H 	H 	0.32007 0.88101 0.96404 0.15200
H 	H 	0.56184 0.94364 0.92767 0.15500
C 	C 	0.43825 0.50024 0.97453 -0.11600
C 	C 	0.41825 0.46110 0.95818 0.00300
C 	C 	0.36905 0.45236 0.95008 0.12200
C 	C 	0.34092 0.48418 0.95793 -0.03700
C 	C 	0.36207 0.52557 0.97358 -0.12200
C 	C 	0.41031 0.53221 0.98232 0.19200
C 	C 	0.45037 0.43244 0.94872 0.00300
O 	O 	0.34832 0.41261 0.93457 -0.27600
H 	H 	0.30349 0.47818 0.95134 0.03900
O 	O 	0.43081 0.57113 0.99809 -0.28300
H 	H 	0.47597 0.50675 0.98093 0.06900
C 	C 	0.48053 0.45787 0.93214 0.11700
C 	C 	0.51439 0.43339 0.92437 -0.03900
C 	C 	0.51899 0.38394 0.93323 -0.12100
C 	C 	0.48828 0.35810 0.94970 0.18300
C 	C 	0.45388 0.38218 0.95725 -0.11000
O 	O 	0.47660 0.50635 0.92339 -0.27800
H 	H 	0.53740 0.45319 0.91156 0.05700
O 	O 	0.49210 0.30964 0.95851 -0.27500
H 	H 	0.43077 0.36252 0.97006 0.07300
H 	H 	0.41905 0.54896 0.01066 0.14300
H 	H 	0.50222 0.53959 0.93087 0.14500
H 	H 	0.51862 0.32440 0.96955 0.13600
H 	H 	0.35839 0.43453 0.92184 0.15200
C 	C 	0.78271 0.23633 0.86207 -0.08900
C 	C 	0.83712 0.26635 0.83297 -0.06600
C 	C 	0.80407 0.27647 0.84679 0.01000
C 	C 	0.03699 0.11914 0.76836 0.02600
C 	C 	0.01925 0.10822 0.74801 -0.10200
H 	H 	0.85266 0.29705 0.82102 0.04500
H 	H 	0.79443 0.31502 0.84543 0.03300
H 	H 	0.06620 0.10351 0.77408 0.03300
C 	C 	0.48577 0.14972 0.86394 -0.08400
C 	C 	0.46537 0.18216 0.85133 0.01000
C 	C 	0.42566 0.15413 0.83728 -0.06500
C 	C 	0.40591 0.09342 0.83572 0.02500
C 	C 	0.42607 0.06091 0.84835 -0.06500
C 	C 	0.46579 0.08887 0.86241 0.01100
C 	C 	0.36412 0.06398 0.82086 -0.00000
C 	C 	0.31652 0.07000 0.82254 -0.03900
C 	C 	0.27817 0.04600 0.80758 -0.03500
C 	C 	0.28702 0.01563 0.79081 -0.01000
C 	C 	0.33399 0.00775 0.78952 -0.04600
C 	C 	0.37242 0.03189 0.80448 -0.03700
C 	C 	0.24911 0.99726 0.77374 0.04400
C 	C 	0.26132 0.02249 0.75462 -0.07900
C 	C 	0.22295 0.01467 0.73967 0.00600
C 	C 	0.17180 0.98207 0.74380 -0.08200
C 	C 	0.16052 0.95221 0.76222 0.01400
C 	C 	0.19900 0.96003 0.77715 -0.07000
H 	H 	0.48067 0.22907 0.85224 0.03100
H 	H 	0.41044 0.17957 0.82751 0.04600
H 	H 	0.41084 0.01401 0.84732 0.04700
H 	H 	0.48073 0.06322 0.87219 0.03800
H 	H 	0.30962 0.09421 0.83524 0.04200
H 	H 	0.24210 0.05246 0.80869 0.03800
H 	H 	0.34110 0.98413 0.77670 0.04500
H 	H 	0.40899 0.02679 0.80311 0.03500
H 	H 	0.30010 0.05050 0.75171 0.04600
H 	H 	0.23270 0.03640 0.72529 0.03000
H 	H 	0.12165 0.92492 0.76532 0.03400
H 	H 	0.18947 0.93909 0.79169 0.05000
C 	C 	0.83126 0.66777 0.83901 -0.03700
C 	C 	0.77906 0.56688 0.84876 0.02900
C 	C 	0.76931 0.47302 0.86264 0.01900
C 	C 	0.73667 0.48042 0.87737 -0.09100
C 	C 	0.72596 0.53170 0.87794 0.01900
C 	C 	0.74690 0.57468 0.86363 -0.06700
H 	H 	0.83872 0.67996 0.85500 0.04200
H 	H 	0.77844 0.43399 0.86225 0.03700
H 	H 	0.70082 0.53785 0.88924 0.03100
H 	H 	0.73771 0.61367 0.86395 0.04800
C 	C 	0.82702 0.37438 0.47508 0.31600
O 	O 	0.98259 0.89371 0.74308 -0.36500
O 	O 	0.92961 0.82708 0.72047 -0.41300
Ni	Ni	0.97348 0.82349 0.69571 1.06500
O 	O 	0.94107 0.87540 0.68109 -0.41300
C 	C 	0.96255 0.90648 0.66548 0.29800
C 	C 	0.94853 0.84179 0.73913 0.27700
O 	O 	0.00131 0.80424 0.66916 -0.40700
Ni	Ni	0.94689 0.00607 0.23579 1.09800
O 	O 	0.94794 0.07308 0.21756 -0.70100
Ni	Ni	0.91928 0.03082 0.19120 1.09500
O 	O 	0.88997 0.01602 0.25309 -0.37600
O 	O 	0.85398 0.89321 0.24490 -0.40900
O 	O 	0.93274 0.09813 0.17110 -0.38700
O 	O 	0.91079 0.96381 0.21048 -0.69600
O 	O 	0.94029 0.93479 0.25214 -0.37300
O 	O 	0.87961 0.97381 0.16847 -0.37100
O 	O 	0.81067 0.93553 0.18859 -0.41100
Ni	Ni	0.84014 0.91935 0.21643 1.06500
H 	H 	0.92438 0.09161 0.22256 0.15500
H 	H 	0.92777 0.93754 0.20553 0.15700
O 	O 	0.82838 0.98981 0.22784 -0.41400
C 	C 	0.96585 0.15160 0.17441 0.29600
C 	C 	0.84310 0.00793 0.24653 0.29000
C 	C 	0.83295 0.93682 0.17105 0.27500
C 	C 	0.89779 0.88875 0.25116 0.27700
O 	O 	0.98372 0.01740 0.18311 -0.40300
O 	O 	0.98092 0.17202 0.19308 -0.42300
C 	C 	0.01608 0.28910 0.14434 -0.08000
C 	C 	0.99570 0.25129 0.16021 0.02500
C 	C 	0.98127 0.19114 0.15709 -0.09600
H 	H 	0.02811 0.33544 0.14703 0.04500
H 	H 	0.99181 0.26882 0.17499 0.02800
H 	H 	0.84174 0.97573 0.13221 0.04100
C 	C 	0.81000 0.99307 0.28172 0.03500
H 	H 	0.84518 0.98856 0.28715 0.04000
C 	C 	0.91855 0.80837 0.29592 -0.06400
C 	C 	0.89929 0.84372 0.28446 0.02100
C 	C 	0.89640 0.83870 0.26314 -0.08700
C 	C 	0.90543 0.79244 0.25363 0.00800
H 	H 	0.92504 0.81614 0.31220 0.04800
H 	H 	0.89100 0.87840 0.29199 0.03600
C 	C 	0.98530 0.45843 0.46162 0.01300
C 	C 	0.95173 0.48921 0.46071 0.11500
C 	C 	0.90022 0.46147 0.46518 -0.03200
C 	C 	0.88139 0.40255 0.47010 -0.12400
C 	C 	0.91500 0.37157 0.47083 0.19600
C 	C 	0.96667 0.39962 0.46658 -0.11800
O 	O 	0.96931 0.54658 0.45563 -0.27800
H 	H 	0.87490 0.48588 0.46486 0.04800
O 	O 	0.89701 0.31335 0.47465 -0.28900
H 	H 	0.99215 0.37541 0.46689 0.07500
H 	H 	0.96502 0.54667 0.44059 0.14600
H 	H 	0.90273 0.31056 0.48951 0.15700
C 	C 	0.93636 0.93951 0.65417 -0.10300
C 	C 	0.96519 0.99000 0.64407 0.04000
C 	C 	0.94082 0.02097 0.63297 -0.08300
C 	C 	0.88738 0.00196 0.63185 0.02100
C 	C 	0.85840 0.95203 0.64217 -0.06100
C 	C 	0.88280 0.92092 0.65332 0.01900
C 	C 	0.86197 0.03269 0.61900 0.00400
C 	C 	0.87000 0.09115 0.62316 -0.04200
C 	C 	0.85128 0.12244 0.60954 -0.03700
C 	C 	0.82424 0.09543 0.59172 -0.00400
C 	C 	0.83378 0.00533 0.60144 -0.05100
C 	C 	0.80563 0.12860 0.57709 0.02900
C 	C 	0.84038 0.17277 0.56594 -0.06900
C 	C 	0.82257 0.20097 0.55083 0.02000
H 	H 	0.96346 0.05936 0.62499 0.05000
H 	H 	0.81706 0.93709 0.64138 0.04600
H 	H 	0.86010 0.88205 0.66103 0.03300
H 	H 	0.89159 0.11256 0.63673 0.03600
H 	H 	0.85809 0.16771 0.61275 0.03600
H 	H 	0.88111 0.18434 0.56868 0.04800
H 	H 	0.84969 0.23416 0.54200 0.03700
C 	C 	0.91647 0.52721 0.55921 0.02500
C 	C 	0.90067 0.55485 0.54325 -0.06200
C 	C 	0.86347 0.52233 0.52890 0.01700
C 	C 	0.94894 0.56186 0.57614 0.01100
C 	C 	0.92716 0.56605 0.59477 -0.04400
C 	C 	0.95648 0.60318 0.61023 -0.02700
C 	C 	0.00813 0.63623 0.60730 -0.01000
C 	C 	0.03053 0.63010 0.58895 -0.03200
C 	C 	0.00093 0.59328 0.57338 -0.04900
C 	C 	0.03670 0.68169 0.62246 0.02900
C 	C 	0.05623 0.73993 0.61671 -0.06600
C 	C 	0.06816 0.78414 0.63153 0.02000
C 	C 	0.05964 0.77037 0.65212 -0.08400
C 	C 	0.03594 0.66843 0.64324 -0.06800
H 	H 	0.91596 0.60167 0.54236 0.05000
H 	H 	0.85075 0.54441 0.51695 0.04100
H 	H 	0.88706 0.54184 0.59703 0.04100
H 	H 	0.93860 0.60786 0.62422 0.03600
H 	H 	0.07043 0.65496 0.58657 0.03700
H 	H 	0.01813 0.58995 0.55907 0.04400
H 	H 	0.05831 0.75090 0.60074 0.04800
H 	H 	0.07922 0.82876 0.62684 0.04100
C 	C 	0.91559 0.42862 0.95109 -0.11000
C 	C 	0.92946 0.48561 0.95859 -0.00000
C 	C 	0.89186 0.51036 0.96084 0.11800
C 	C 	0.84112 0.47900 0.95470 -0.03200
C 	C 	0.82760 0.42289 0.94629 -0.12300
C 	C 	0.86496 0.39731 0.94483 0.19400
O 	O 	0.90500 0.56607 0.96822 -0.27300
H 	H 	0.81269 0.49911 0.95579 0.05200
O 	O 	0.85180 0.34131 0.93775 -0.29800
H 	H 	0.94426 0.40892 0.94977 0.07400
H 	H 	0.85835 0.34439 0.92295 0.15600
H 	H 	0.90110 0.56247 0.98317 0.14200
C 	C 	0.79549 0.18646 0.86356 0.00900
C 	C 	0.82861 0.17647 0.84975 -0.06600
C 	C 	0.84916 0.21608 0.83428 0.02400
C 	C 	0.88092 0.20325 0.81881 0.00200
C 	C 	0.93214 0.23951 0.81698 -0.04200
C 	C 	0.96232 0.22667 0.80246 -0.02900
C 	C 	0.94144 0.17755 0.78966 -0.00600
C 	C 	0.89015 0.14158 0.79143 -0.03500
C 	C 	0.86001 0.15446 0.80589 -0.04100
C 	C 	0.97351 0.16240 0.77487 0.03900
C 	C 	0.01408 0.14601 0.78178 -0.07800
C 	C 	0.98180 0.12913 0.74075 0.02200
C 	C 	0.95921 0.15643 0.75410 -0.07400
H 	H 	0.77992 0.15552 0.87543 0.03300
H 	H 	0.83797 0.13770 0.85095 0.04600
H 	H 	0.94860 0.27729 0.82690 0.04100
H 	H 	0.00188 0.25468 0.80120 0.03100
H 	H 	0.87380 0.10333 0.78172 0.03800
H 	H 	0.82044 0.12644 0.80712 0.03700
H 	H 	0.02586 0.15107 0.79775 0.04900
H 	H 	0.96828 0.12147 0.72499 0.01400
H 	H 	0.92866 0.17008 0.74853 0.04600
C 	C 	0.92220 0.80641 0.75617 -0.08700
C 	C 	0.95056 0.79571 0.77253 0.01100
C 	C 	0.92564 0.75954 0.78821 -0.06500
C 	C 	0.87209 0.73442 0.78778 0.02600
C 	C 	0.84370 0.74679 0.77175 -0.06600
C 	C 	0.86863 0.78231 0.75596 0.01400
C 	C 	0.84592 0.69260 0.80344 0.00000
C 	C 	0.81376 0.63628 0.79764 -0.03900
C 	C 	0.79056 0.59591 0.81243 -0.03800
C 	C 	0.79986 0.61115 0.83319 0.00000
C 	C 	0.85403 0.70841 0.82419 -0.03700
C 	C 	0.79057 0.51613 0.84849 -0.06700
H 	H 	0.99191 0.81430 0.77287 0.02900
H 	H 	0.94795 0.75014 0.80046 0.04700
H 	H 	0.80235 0.72828 0.77141 0.04600
H 	H 	0.84633 0.79110 0.74357 0.03400
H 	H 	0.80732 0.62357 0.78167 0.03600
H 	H 	0.76602 0.55247 0.80778 0.03700
H 	H 	0.87837 0.75194 0.82883 0.04200
H 	H 	0.81588 0.51004 0.83725 0.04700
