data_crystal

_cell_length_a 23.60154
_cell_length_b 22.43060
_cell_length_c 116.71126
_cell_angle_alpha 89.97604
_cell_angle_beta  90.05753
_cell_angle_gamma 119.92694

_symmetry_space_group_name_	'P 1'
_symmetry_space_group_name_H-M	'P 1'

loop_
_symmetry_equiv_pos_as_xyz
  x,y,z

loop_
_atom_site_label
_atom_site_type_symbol
_atom_site_fract_x
_atom_site_fract_y
_atom_site_fract_z
_atom_site_charge
C 	C 	0.86222 0.91187 0.00584 0.30900
C 	C 	0.06576 0.19539 0.00610 0.28600
Ni	Ni	0.94925 0.05872 0.00371 1.11500
O 	O 	0.04042 0.97633 0.00021 -0.37400
O 	O 	0.90940 0.89743 0.00717 -0.37800
O 	O 	0.87105 0.97137 0.00925 -0.40100
H 	H 	0.04590 0.07087 0.00992 0.15500
H 	H 	0.74002 0.89514 0.00566 0.03000
C 	C 	0.12025 0.32091 0.00235 0.01500
H 	H 	0.08753 0.32573 0.00830 0.03600
C 	C 	0.12062 0.25872 0.00151 -0.08300
O 	O 	0.91691 0.11200 0.01299 -0.39100
C 	C 	0.13048 0.06699 0.02684 0.29300
C 	C 	0.90298 0.10149 0.02399 0.31200
Ni	Ni	0.99603 0.96047 0.01612 1.10200
Ni	Ni	0.02892 0.10716 0.02714 1.12400
O 	O 	0.93880 0.08824 0.03098 -0.39700
O 	O 	0.05168 0.19124 0.01724 -0.37800
O 	O 	0.08433 0.00098 0.02549 -0.36100
O 	O 	0.11838 0.11805 0.02508 -0.38700
O 	O 	0.00468 0.04789 0.01426 -0.70200
H 	H 	0.24538 0.18860 0.02693 0.03500
C 	C 	0.85389 0.11566 0.02892 -0.09100
H 	H 	0.91854 0.22559 0.02968 0.02700
H 	H 	0.77826 0.00887 0.02966 0.03400
O 	O 	0.94143 0.93996 0.03096 -0.37800
C 	C 	0.19172 0.08305 0.03280 -0.08700
C 	C 	0.24418 0.15108 0.03292 0.01600
C 	C 	0.87324 0.18243 0.03273 0.01800
C 	C 	0.83836 0.19264 0.04145 -0.06700
C 	C 	0.79436 0.06051 0.03272 0.01900
C 	C 	0.96579 0.97627 0.04030 0.27700
O 	O 	0.01667 0.03873 0.03976 -0.35800
C 	C 	0.94433 0.94180 0.05143 -0.08100
C 	C 	0.87729 0.90143 0.05376 0.01200
H 	H 	0.84171 0.90315 0.04810 0.03400
C 	C 	0.28919 0.12517 0.04964 0.02900
C 	C 	0.24210 0.05527 0.04851 -0.07100
C 	C 	0.19332 0.03429 0.04016 0.03000
C 	C 	0.29212 0.17230 0.04142 -0.06700
H 	H 	0.42116 0.20697 0.05123 0.03800
H 	H 	0.24100 0.01791 0.05452 0.05000
H 	H 	0.15452 0.98108 0.03993 0.02500
H 	H 	0.32924 0.22610 0.04201 0.04600
C 	C 	0.78330 0.13611 0.04629 0.02800
C 	C 	0.75898 0.07073 0.04135 -0.06600
C 	C 	0.75870 0.14327 0.05756 -0.00000
H 	H 	0.85689 0.24366 0.04500 0.04400
H 	H 	0.71524 0.02705 0.04475 0.04800
H 	H 	0.73859 0.22294 0.05205 0.03700
C 	C 	0.32905 0.15018 0.06018 -0.00000
C 	C 	0.39703 0.19377 0.05949 -0.03800
C 	C 	0.74071 0.19361 0.05925 -0.03900
C 	C 	0.90140 0.85035 0.07001 0.02800
C 	C 	0.96853 0.89407 0.06816 -0.07900
C 	C 	0.98995 0.93988 0.05892 -0.00300
C 	C 	0.85590 0.85596 0.06303 -0.06700
H 	H 	0.91459 0.73747 0.06873 0.03600
H 	H 	0.04186 0.97098 0.05722 0.04300
H 	H 	0.80397 0.82291 0.06447 0.04500
C 	C 	0.29848 0.13356 0.07095 -0.03700
C 	C 	0.43396 0.22072 0.06948 -0.03800
H 	H 	0.24592 0.10095 0.07158 0.04100
H 	H 	0.48631 0.25474 0.06885 0.03700
C 	C 	0.72806 0.20812 0.07030 -0.03900
C 	C 	0.76032 0.10501 0.06697 -0.03800
H 	H 	0.71640 0.24865 0.07157 0.03800
H 	H 	0.77435 0.06620 0.06580 0.04100
C 	C 	0.88841 0.73815 0.07630 -0.03900
C 	C 	0.40343 0.20316 0.08025 0.00000
C 	C 	0.33552 0.15934 0.08093 -0.03700
H 	H 	0.50841 0.19023 0.08576 0.04600
C 	C 	0.73272 0.17198 0.07974 -0.00000
C 	C 	0.74719 0.11920 0.07800 -0.03800
H 	H 	0.00401 0.89065 0.07361 0.05500
C 	C 	0.87883 0.79409 0.07841 -0.00500
C 	C 	0.86322 0.68244 0.08386 -0.04100
H 	H 	0.87064 0.63935 0.08215 0.03700
H 	H 	0.75065 0.09091 0.08523 0.04000
C 	C 	0.74676 0.56147 0.09868 -0.06600
C 	C 	0.82847 0.68237 0.09360 -0.00100
C 	C 	0.81944 0.73859 0.09578 -0.04000
C 	C 	0.84440 0.79421 0.08819 -0.03900
H 	H 	0.72338 0.55556 0.09044 0.04500
H 	H 	0.67726 0.45897 0.10419 0.03300
H 	H 	0.83662 0.83710 0.08986 0.03500
C 	C 	0.42594 0.25756 0.09967 -0.06600
C 	C 	0.44297 0.22678 0.09084 0.02700
C 	C 	0.49456 0.21359 0.09251 -0.06500
C 	C 	0.52677 0.22799 0.10304 0.01400
H 	H 	0.38708 0.26931 0.09839 0.04600
H 	H 	0.56617 0.21699 0.10424 0.03300
H 	H 	0.31153 0.14474 0.08919 0.04000
C 	C 	0.72869 0.19370 0.09147 0.02600
C 	C 	0.67229 0.15501 0.09807 -0.06600
C 	C 	0.78227 0.25201 0.09622 -0.06600
H 	H 	0.63079 0.10972 0.09448 0.04700
H 	H 	0.82627 0.28171 0.09121 0.04500
C 	C 	0.80239 0.62396 0.10161 0.02500
C 	C 	0.72062 0.50681 0.10648 0.01300
H 	H 	0.79279 0.73896 0.10331 0.03700
C 	C 	0.50682 0.25431 0.11213 -0.08500
C 	C 	0.45747 0.27090 0.11029 0.01500
C 	C 	0.66915 0.17506 0.10929 0.01100
C 	C 	0.77930 0.27206 0.10743 0.01400
H 	H 	0.82105 0.31729 0.11097 0.03500
C 	C 	0.53465 0.25964 0.12365 0.28700
O 	O 	0.55345 0.21495 0.12656 -0.37500
C 	C 	0.75012 0.51423 0.11724 -0.08400
C 	C 	0.80669 0.57643 0.12003 0.01400
C 	C 	0.83257 0.63101 0.11225 -0.06800
H 	H 	0.87572 0.67904 0.11454 0.04200
H 	H 	0.44215 0.29211 0.11717 0.03300
C 	C 	0.72250 0.23406 0.11402 -0.08400
H 	H 	0.62474 0.14567 0.11421 0.03200
C 	C 	0.71695 0.25905 0.12544 0.28300
C 	C 	0.71974 0.45891 0.12582 0.29200
Ni	Ni	0.60348 0.22400 0.14164 1.11200
Ni	Ni	0.74170 0.36805 0.14232 1.11800
Ni	Ni	0.60848 0.37191 0.14098 1.11800
O 	O 	0.53078 0.30091 0.13144 -0.38300
O 	O 	0.65504 0.42650 0.12696 -0.38900
O 	O 	0.75810 0.45449 0.13378 -0.39200
O 	O 	0.67721 0.21432 0.13323 -0.36900
O 	O 	0.75500 0.32528 0.12801 -0.38000
O 	O 	0.65082 0.31961 0.13905 -0.71500
H 	H 	0.65312 0.32053 0.13064 0.15000
H 	H 	0.82966 0.58309 0.12834 0.03200
H 	H 	0.45489 0.32636 0.14680 0.06900
C 	C 	0.70794 0.25410 0.15886 0.31400
C 	C 	0.51734 0.25963 0.15599 0.31200
C 	C 	0.71495 0.45234 0.15786 0.31600
O 	O 	0.73113 0.40424 0.15737 -0.40200
O 	O 	0.64495 0.22998 0.15760 -0.38000
O 	O 	0.74896 0.29299 0.15087 -0.38600
O 	O 	0.51914 0.21229 0.14959 -0.37200
O 	O 	0.56563 0.32343 0.15580 -0.39100
O 	O 	0.67299 0.45333 0.15048 -0.38800
C 	C 	0.44823 0.33940 0.15568 -0.20500
H 	H 	0.49474 0.38328 0.15886 0.06800
H 	H 	0.41114 0.35609 0.15536 0.06600
C 	C 	0.85990 0.53000 0.15873 -0.20500
H 	H 	0.91267 0.56924 0.15913 0.06300
H 	H 	0.84488 0.52484 0.14961 0.06800
C 	C 	0.69770 0.15199 0.16911 -0.01100
C 	C 	0.73082 0.22371 0.16768 -0.11000
C 	C 	0.68674 0.04382 0.17779 -0.17200
H 	H 	0.65257 0.12030 0.16448 0.03500
C 	C 	0.87403 0.12214 0.17099 -0.17100
H 	H 	0.84974 0.36146 0.16537 0.07000
H 	H 	0.71563 0.02113 0.17435 0.06400
H 	H 	0.63882 0.01937 0.17330 0.06200
H 	H 	0.90716 0.10276 0.16837 0.06000
H 	H 	0.89843 0.17788 0.16895 0.06400
H 	H 	0.82849 0.09440 0.16586 0.06400
C 	C 	0.37288 0.25805 0.17070 -0.09300
C 	C 	0.43759 0.18180 0.17051 -0.01200
C 	C 	0.46044 0.24037 0.16354 -0.10800
C 	C 	0.42699 0.27815 0.16347 0.10000
H 	H 	0.46277 0.15248 0.17047 0.04000
H 	H 	0.34791 0.28758 0.17085 0.05100
H 	H 	0.22474 0.11758 0.17151 0.05400
H 	H 	0.10829 0.07099 0.17247 0.07100
H 	H 	0.84463 0.75906 0.17272 0.04900
C 	C 	0.74982 0.51080 0.16582 -0.11200
C 	C 	0.81907 0.55027 0.16591 0.10000
H 	H 	0.90420 0.88144 0.17262 0.06000
H 	H 	0.85444 0.48073 0.16187 0.06400
C 	C 	0.72372 0.12080 0.17616 0.02400
C 	C 	0.78885 0.26510 0.17394 0.10200
C 	C 	0.82204 0.34252 0.17350 -0.20700
H 	H 	0.78543 0.35970 0.17412 0.08200
C 	C 	0.35016 0.19956 0.17764 0.00400
C 	C 	0.71345 0.53182 0.17248 -0.01100
C 	C 	0.85033 0.60991 0.17266 -0.09500
H 	H 	0.66048 0.50186 0.17234 0.03700
H 	H 	0.90328 0.64011 0.17281 0.04900
C 	C 	0.22941 0.13427 0.18035 -0.09600
C 	C 	0.10683 0.06530 0.18194 -0.20900
H 	H 	0.07052 0.07886 0.18523 0.08500
H 	H 	0.09040 0.01074 0.18400 0.08600
C 	C 	0.91262 0.88683 0.18202 -0.20000
H 	H 	0.96455 0.92652 0.18343 0.06700
C 	C 	0.81624 0.23367 0.18058 -0.09400
C 	C 	0.78464 0.16190 0.18158 0.00400
C 	C 	0.81507 0.13030 0.18858 0.00500
H 	H 	0.86219 0.26510 0.18501 0.05000
C 	C 	0.85837 0.11136 0.18361 0.02300
C 	C 	0.88848 0.08400 0.19056 -0.01200
H 	H 	0.92158 0.06916 0.18677 0.03700
H 	H 	0.85676 0.36642 0.18074 0.06600
H 	H 	0.67727 0.03130 0.18704 0.06600
C 	C 	0.38226 0.16065 0.17747 0.02500
C 	C 	0.29160 0.17844 0.18489 0.00500
C 	C 	0.35711 0.09609 0.18456 -0.17300
C 	C 	0.29781 0.20185 0.19631 0.02400
C 	C 	0.17327 0.11106 0.18717 0.10400
H 	H 	0.30652 0.05816 0.18188 0.06700
H 	H 	0.35714 0.10828 0.19378 0.06400
H 	H 	0.38782 0.07172 0.18353 0.06300
C 	C 	0.86189 0.75792 0.18129 -0.09400
C 	C 	0.84856 0.69487 0.18608 0.00200
C 	C 	0.89796 0.81952 0.18744 0.09500
C 	C 	0.81386 0.63133 0.17915 0.00400
C 	C 	0.74492 0.59199 0.17912 0.02200
C 	C 	0.70484 0.61467 0.18597 -0.17000
H 	H 	0.88048 0.90468 0.18579 0.07400
H 	H 	0.65167 0.57716 0.18534 0.05800
H 	H 	0.71331 0.66504 0.18274 0.06200
H 	H 	0.71879 0.61976 0.19515 0.06100
C 	C 	0.12372 0.09671 0.20681 0.31100
C 	C 	0.95351 0.88015 0.20573 0.30400
O 	O 	0.08724 0.02948 0.20688 -0.38500
C 	C 	0.87697 0.07666 0.20240 -0.11400
C 	C 	0.17998 0.12971 0.19889 -0.11200
H 	H 	0.38721 0.29968 0.19573 0.06400
C 	C 	0.91940 0.81743 0.19867 -0.11200
C 	C 	0.91281 0.05205 0.20955 0.31300
O 	O 	0.00433 0.88978 0.21191 -0.38400
O 	O 	0.11529 0.13432 0.21454 -0.37300
O 	O 	0.97687 0.08645 0.20952 -0.38700
O 	O 	0.88062 0.00272 0.21706 -0.37900
O 	O 	0.92482 0.91645 0.20768 -0.40500
C 	C 	0.83444 0.09690 0.20740 0.10300
C 	C 	0.80283 0.12215 0.20037 -0.09600
H 	H 	0.76964 0.13695 0.20413 0.05200
C 	C 	0.24198 0.17655 0.20327 -0.01400
C 	C 	0.36388 0.25272 0.20114 -0.17200
H 	H 	0.24701 0.19182 0.21219 0.04400
H 	H 	0.36002 0.26863 0.20999 0.06100
H 	H 	0.39577 0.22944 0.20139 0.06300
C 	C 	0.87101 0.69297 0.19721 0.02400
C 	C 	0.90623 0.75428 0.20342 -0.01600
C 	C 	0.85828 0.62583 0.20243 -0.17200
H 	H 	0.92270 0.75279 0.21204 0.04400
H 	H 	0.88426 0.60463 0.19745 0.06200
H 	H 	0.80505 0.58817 0.20240 0.06300
H 	H 	0.87552 0.63247 0.21145 0.06000
Ni	Ni	0.03044 0.09988 0.22434 1.11400
Ni	Ni	0.06095 0.97401 0.22154 1.11100
Ni	Ni	0.91278 0.94063 0.22365 1.11300
O 	O 	0.00279 0.00575 0.22577 -0.70200
C 	C 	0.82411 0.09381 0.22019 -0.20900
H 	H 	0.79683 0.03946 0.22308 0.08900
C 	C 	0.12510 0.08468 0.23941 0.28700
C 	C 	0.96876 0.87010 0.23776 0.27900
O 	O 	0.95209 0.08572 0.23476 -0.38400
O 	O 	0.89584 0.96936 0.23915 -0.40200
O 	O 	0.92166 0.86243 0.23059 -0.38900
O 	O 	0.03158 0.91163 0.23531 -0.38800
O 	O 	0.09166 0.11737 0.23820 -0.37300
O 	O 	0.13479 0.05332 0.23057 -0.37500
H 	H 	0.00526 0.00236 0.23413 0.15400
H 	H 	0.25218 0.11872 0.24200 0.03400
H 	H 	0.02638 0.79437 0.24260 0.03700
H 	H 	0.87187 0.12138 0.22468 0.08400
H 	H 	0.79546 0.11867 0.22276 0.06900
C 	C 	0.92303 0.03489 0.24234 0.30500
C 	C 	0.16065 0.09336 0.25017 -0.08300
C 	C 	0.22747 0.11427 0.25004 0.01600
C 	C 	0.95169 0.81949 0.24699 -0.08100
C 	C 	0.98501 0.78253 0.24807 0.00500
H 	H 	0.84686 0.57576 0.25712 0.03700
H 	H 	0.98857 0.69923 0.25653 0.04200
C 	C 	0.89788 0.80326 0.25407 0.00800
C 	C 	0.96330 0.72830 0.25589 -0.06400
H 	H 	0.87210 0.83177 0.25335 0.02900
H 	H 	0.89661 0.13346 0.24964 0.02900
C 	C 	0.54300 0.28952 0.33509 0.29200
C 	C 	0.80737 0.42412 0.35749 0.30700
C 	C 	0.71099 0.36132 0.32328 0.30900
C 	C 	0.64363 0.35633 0.37158 0.28500
C 	C 	0.74926 0.22396 0.34195 0.31100
C 	C 	0.58495 0.14826 0.35844 0.29000
Ni	Ni	0.67759 0.38703 0.34668 1.11300
Ni	Ni	0.70709 0.28080 0.36086 1.12000
Ni	Ni	0.63306 0.23444 0.33695 1.12100
O 	O 	0.59305 0.35362 0.33647 -0.37100
O 	O 	0.54774 0.23455 0.33771 -0.38600
O 	O 	0.73280 0.21770 0.35284 -0.38700
O 	O 	0.76348 0.44336 0.35616 -0.37300
O 	O 	0.79199 0.36066 0.35526 -0.39200
O 	O 	0.60027 0.15028 0.34737 -0.38200
O 	O 	0.73485 0.39923 0.33247 -0.37900
O 	O 	0.65583 0.30239 0.32377 -0.38300
O 	O 	0.62433 0.19691 0.36573 -0.38600
O 	O 	0.63065 0.37978 0.36205 -0.37200
O 	O 	0.69280 0.34301 0.37206 -0.37700
O 	O 	0.72076 0.24344 0.33438 -0.39400
O 	O 	0.65877 0.29643 0.34944 -0.71700
H 	H 	0.61652 0.27813 0.35341 0.15900
C 	C 	0.12925 0.08783 0.26065 0.01600
C 	C 	0.16492 0.10626 0.27085 -0.06400
C 	C 	0.23231 0.13036 0.27067 0.02700
C 	C 	0.26323 0.13283 0.26026 -0.06600
C 	C 	0.27099 0.15634 0.28126 0.00000
C 	C 	0.27706 0.21519 0.28665 -0.03800
C 	C 	0.31458 0.24055 0.29661 -0.03800
C 	C 	0.34628 0.20725 0.30124 -0.00000
C 	C 	0.33951 0.14789 0.29592 -0.03800
C 	C 	0.30201 0.12255 0.28597 -0.03800
C 	C 	0.39005 0.23687 0.31118 0.02700
C 	C 	0.37750 0.19854 0.32130 -0.06600
C 	C 	0.42551 0.21973 0.32980 0.01400
C 	C 	0.48658 0.27915 0.32819 -0.08400
C 	C 	0.49645 0.32104 0.31859 0.01500
C 	C 	0.44843 0.29981 0.31010 -0.06600
H 	H 	0.07747 0.07088 0.26084 0.03300
H 	H 	0.14050 0.10324 0.27886 0.04800
H 	H 	0.31522 0.15098 0.26006 0.04600
H 	H 	0.25322 0.24159 0.28307 0.03900
H 	H 	0.31961 0.28644 0.30064 0.03800
H 	H 	0.36419 0.12211 0.29940 0.04000
H 	H 	0.29731 0.07691 0.28189 0.04100
H 	H 	0.33184 0.15070 0.32234 0.04700
H 	H 	0.41661 0.18794 0.33732 0.03400
H 	H 	0.54300 0.36750 0.31730 0.03500
H 	H 	0.45812 0.33032 0.30239 0.04500
C 	C 	0.73952 0.39126 0.31212 -0.09100
C 	C 	0.70077 0.39808 0.30367 0.01700
C 	C 	0.73034 0.44299 0.29446 -0.06800
C 	C 	0.79875 0.48096 0.29363 0.02700
C 	C 	0.83706 0.46900 0.30146 -0.06800
C 	C 	0.80755 0.42435 0.31068 0.01900
C 	C 	0.83005 0.53958 0.28567 -0.00100
C 	C 	0.82484 0.52856 0.27379 -0.03900
C 	C 	0.85174 0.58461 0.26628 -0.03900
C 	C 	0.88375 0.65198 0.27061 -0.00100
C 	C 	0.88976 0.66293 0.28248 -0.04000
C 	C 	0.86306 0.60698 0.28998 -0.03900
C 	C 	0.90842 0.71094 0.26274 0.02300
C 	C 	0.87641 0.74927 0.26193 -0.06500
H 	H 	0.64812 0.37221 0.30463 0.03300
H 	H 	0.70029 0.45118 0.28835 0.04500
H 	H 	0.88987 0.49704 0.30075 0.04600
H 	H 	0.83779 0.41832 0.31705 0.03400
H 	H 	0.79951 0.47671 0.27039 0.03700
H 	H 	0.91448 0.71479 0.28588 0.03600
H 	H 	0.86708 0.61594 0.29914 0.03800
H 	H 	0.83426 0.73647 0.26725 0.04300
C 	C 	0.91465 0.05093 0.25423 -0.09700
C 	C 	0.92013 0.01296 0.26331 0.03200
C 	C 	0.91111 0.02714 0.27461 -0.05300
C 	C 	0.89624 0.07914 0.27693 0.02300
C 	C 	0.89172 0.11781 0.26788 -0.06800
C 	C 	0.90105 0.10390 0.25657 0.01900
C 	C 	0.88223 0.09091 0.28876 0.00300
C 	C 	0.81849 0.07379 0.29185 -0.03900
C 	C 	0.80578 0.08919 0.30281 -0.03600
C 	C 	0.85674 0.12192 0.31080 -0.00000
C 	C 	0.92013 0.13675 0.30785 -0.03800
C 	C 	0.93281 0.12123 0.29686 -0.03900
C 	C 	0.84504 0.14801 0.32165 0.02800
C 	C 	0.79548 0.10285 0.32912 -0.06700
C 	C 	0.76957 0.12869 0.33722 0.01700
C 	C 	0.79285 0.19967 0.33783 -0.09100
C 	C 	0.84860 0.24491 0.33154 0.01900
C 	C 	0.87450 0.21919 0.32344 -0.06600
H 	H 	0.93154 0.97261 0.26160 0.01200
H 	H 	0.91481 0.99713 0.28154 0.02900
H 	H 	0.88035 0.15816 0.26960 0.04500
H 	H 	0.77904 0.04975 0.28568 0.04100
H 	H 	0.75676 0.07787 0.30497 0.04000
H 	H 	0.95979 0.16184 0.31395 0.03800
H 	H 	0.98212 0.13414 0.29457 0.03800
H 	H 	0.77377 0.04774 0.32806 0.04800
H 	H 	0.72749 0.09328 0.34224 0.03300
H 	H 	0.86806 0.29995 0.33216 0.03200
H 	H 	0.91394 0.25462 0.31793 0.04600
C 	C 	0.48282 0.47823 0.42552 -0.00100
C 	C 	0.49486 0.50385 0.41429 -0.03900
C 	C 	0.52132 0.47844 0.40624 -0.03900
C 	C 	0.53605 0.42726 0.40937 -0.00000
C 	C 	0.52493 0.40231 0.42065 -0.03900
C 	C 	0.49829 0.42763 0.42869 -0.03900
C 	C 	0.56148 0.39871 0.40074 0.02600
C 	C 	0.52076 0.35761 0.39185 -0.06500
C 	C 	0.54697 0.33925 0.38268 0.01300
C 	C 	0.61415 0.36195 0.38232 -0.08200
C 	C 	0.65409 0.39919 0.39160 0.01400
C 	C 	0.62781 0.41757 0.40078 -0.06600
H 	H 	0.48305 0.54288 0.41176 0.03800
H 	H 	0.52999 0.49814 0.39756 0.03900
H 	H 	0.53626 0.36288 0.42314 0.03800
H 	H 	0.46929 0.34198 0.39183 0.04600
H 	H 	0.51555 0.30969 0.37564 0.03100
H 	H 	0.70601 0.41691 0.39143 0.03500
H 	H 	0.65948 0.44879 0.40768 0.04500
C 	C 	0.17642 0.64722 0.42359 -0.06600
C 	C 	0.11640 0.58689 0.42182 0.02800
C 	C 	0.08997 0.53715 0.43054 -0.06700
C 	C 	0.07964 0.57731 0.41108 -0.00600
C 	C 	0.01457 0.56285 0.41148 -0.02500
C 	C 	0.97878 0.55081 0.40138 -0.05300
C 	C 	0.00805 0.55445 0.39073 0.01200
C 	C 	0.10947 0.58258 0.40044 -0.03400
C 	C 	0.96777 0.53306 0.38021 0.01900
C 	C 	0.92628 0.55954 0.37776 -0.06500
C 	C 	0.87678 0.52754 0.36958 0.01500
C 	C 	0.86888 0.46922 0.36368 -0.09100
C 	C 	0.91564 0.44844 0.36513 0.01200
C 	C 	0.96424 0.47955 0.37346 -0.06400
H 	H 	0.19750 0.68575 0.41691 0.04500
H 	H 	0.04433 0.48972 0.42917 0.04600
H 	H 	0.99146 0.56004 0.41964 0.03100
H 	H 	0.92779 0.53690 0.40183 0.04100
H 	H 	0.09737 0.57564 0.38214 0.04000
H 	H 	0.15977 0.59401 0.40003 0.03700
H 	H 	0.93018 0.60257 0.38263 0.04300
H 	H 	0.84270 0.54597 0.36826 0.03600
H 	H 	0.91214 0.40562 0.36026 0.03500
H 	H 	0.99685 0.45956 0.37510 0.04400
C 	C 	0.42798 0.78790 0.42574 -0.06700
C 	C 	0.42163 0.84485 0.42276 0.02600
C 	C 	0.43082 0.86867 0.41078 -0.00200
C 	C 	0.49271 0.89687 0.40570 -0.03800
C 	C 	0.50388 0.92773 0.39491 -0.04000
C 	C 	0.45314 0.93053 0.38908 0.00200
C 	C 	0.39017 0.89854 0.39388 -0.04200
C 	C 	0.37912 0.86796 0.40471 -0.03900
C 	C 	0.46835 0.97531 0.37892 0.01600
C 	C 	0.50294 0.96864 0.36968 -0.08000
C 	C 	0.53524 0.02277 0.36189 0.03000
C 	C 	0.53290 0.08366 0.36329 -0.08500
C 	C 	0.49094 0.08617 0.37154 0.01300
C 	C 	0.45900 0.03235 0.37936 -0.05000
H 	H 	0.43577 0.75868 0.41916 0.04500
H 	H 	0.53279 0.89723 0.41029 0.03700
H 	H 	0.55270 0.95232 0.39132 0.03700
H 	H 	0.35046 0.89964 0.38940 0.03600
H 	H 	0.33090 0.84538 0.40851 0.03600
H 	H 	0.50867 0.92375 0.36902 0.04500
H 	H 	0.56633 0.01958 0.35539 0.03400
H 	H 	0.48738 0.13225 0.37249 0.03100
H 	H 	0.43114 0.03743 0.38628 0.04600
C 	C 	0.07404 0.57193 0.39030 -0.04500
C 	C 	0.21052 0.62756 0.45454 0.28400
C 	C 	0.39564 0.55043 0.44999 -0.08300
C 	C 	0.45856 0.59513 0.44574 0.01100
C 	C 	0.48691 0.57165 0.43771 -0.06600
C 	C 	0.45266 0.50326 0.43388 0.02600
C 	C 	0.38941 0.45886 0.43798 -0.06600
C 	C 	0.36095 0.48232 0.44598 0.01500
H 	H 	0.48559 0.64792 0.44870 0.02900
H 	H 	0.53564 0.60641 0.43453 0.04400
H 	H 	0.36243 0.40612 0.43501 0.04600
H 	H 	0.31255 0.44715 0.44924 0.03500
H 	H 	0.48940 0.40776 0.43737 0.03800
C 	C 	0.18028 0.61097 0.44306 -0.08400
C 	C 	0.20855 0.65885 0.43410 0.01300
C 	C 	0.12150 0.54931 0.44113 0.01300
H 	H 	0.25487 0.70573 0.43535 0.03600
H 	H 	0.09939 0.51154 0.44790 0.03300
C 	C 	0.41552 0.80678 0.44586 -0.08800
C 	C 	0.42485 0.76885 0.43723 0.01300
C 	C 	0.41132 0.88217 0.43135 -0.06700
C 	C 	0.40830 0.86327 0.44285 0.01400
H 	H 	0.42893 0.72416 0.43939 0.03200
H 	H 	0.40678 0.92651 0.42913 0.04400
H 	H 	0.40085 0.89285 0.44940 0.03200
C 	C 	0.36790 0.57376 0.45908 0.28700
C 	C 	0.40927 0.78464 0.45793 0.28700
Ni	Ni	0.25729 0.56549 0.47315 1.11100
Ni	Ni	0.29155 0.72520 0.47280 1.12000
O 	O 	0.19243 0.57755 0.46229 -0.37700
O 	O 	0.24665 0.69343 0.45746 -0.38200
O 	O 	0.37446 0.79923 0.46518 -0.38600
O 	O 	0.43740 0.74910 0.46135 -0.38700
O 	O 	0.30330 0.54549 0.45972 -0.37600
O 	O 	0.40625 0.60935 0.46780 -0.38500
O 	O 	0.31905 0.65896 0.47130 -0.71300
H 	H 	0.32426 0.65963 0.46293 0.14900
C 	C 	0.06597 0.61909 0.47810 -0.20400
H 	H 	0.01504 0.60491 0.47582 0.06800
H 	H 	0.08097 0.59140 0.47202 0.08700
H 	H 	0.09722 0.67551 0.47695 0.08100
C 	C 	0.35455 0.57286 0.49094 0.31400
C 	C 	0.18377 0.61627 0.48703 0.31200
C 	C 	0.38860 0.78587 0.49107 0.31600
Ni	Ni	0.40743 0.69167 0.47568 1.11800
O 	O 	0.42984 0.77859 0.48442 -0.39100
O 	O 	0.30810 0.53257 0.48374 -0.37300
O 	O 	0.37880 0.63960 0.49063 -0.39600
O 	O 	0.21530 0.58189 0.48753 -0.38200
O 	O 	0.20040 0.66595 0.47949 -0.38600
O 	O 	0.32574 0.75330 0.48877 -0.39400
C 	C 	0.47560 0.38655 0.50341 -0.17200
C 	C 	0.38253 0.54282 0.49889 -0.11100
C 	C 	0.49855 0.63582 0.49363 -0.20400
H 	H 	0.50673 0.43252 0.49809 0.06500
H 	H 	0.42356 0.36570 0.50099 0.06400
H 	H 	0.48863 0.34639 0.50146 0.06000
H 	H 	0.48659 0.62992 0.48437 0.06200
H 	H 	0.54960 0.64622 0.49444 0.06500
H 	H 	0.57636 0.07707 0.50562 0.05300
C 	C 	0.39392 0.89118 0.49898 -0.00700
C 	C 	0.40159 0.00275 0.50500 -0.16000
H 	H 	0.35660 0.88455 0.49286 0.03100
H 	H 	0.65456 0.19559 0.50464 0.06600
H 	H 	0.35613 0.98330 0.49985 0.05400
H 	H 	0.44053 0.04990 0.50081 0.06200
C 	C 	0.01818 0.58359 0.49780 -0.09000
C 	C 	0.12459 0.59399 0.49423 -0.11000
C 	C 	0.07040 0.59964 0.49032 0.09900
H 	H 	0.97847 0.59151 0.49508 0.04600
H 	H 	0.89754 0.44282 0.50404 0.05000
H 	H 	0.77903 0.38393 0.50392 0.06500
C 	C 	0.78564 0.43856 0.53728 0.31200
C 	C 	0.61695 0.21783 0.53755 0.31300
O 	O 	0.67105 0.23081 0.54299 -0.38600
O 	O 	0.77622 0.47582 0.54494 -0.37600
O 	O 	0.75076 0.37109 0.53754 -0.39400
O 	O 	0.63569 0.42229 0.54100 -0.38400
O 	O 	0.58803 0.25358 0.53975 -0.39800
C 	C 	0.47047 0.46406 0.53227 -0.09500
C 	C 	0.46153 0.44724 0.52060 0.00400
C 	C 	0.48555 0.40607 0.51591 0.02300
C 	C 	0.52127 0.38543 0.52288 -0.01200
C 	C 	0.53182 0.40396 0.53447 -0.11300
C 	C 	0.43349 0.47929 0.51312 0.00400
H 	H 	0.54135 0.35542 0.51924 0.03600
C 	C 	0.36519 0.44997 0.51190 0.02300
C 	C 	0.34023 0.48225 0.50483 -0.01200
C 	C 	0.45118 0.57183 0.50009 0.10000
C 	C 	0.47577 0.54036 0.50738 -0.09400
C 	C 	0.31891 0.38476 0.51817 -0.17100
H 	H 	0.28779 0.46009 0.50393 0.03800
H 	H 	0.52815 0.56296 0.50848 0.05100
H 	H 	0.26717 0.36625 0.51579 0.06000
H 	H 	0.32400 0.39411 0.52755 0.06400
H 	H 	0.33002 0.34341 0.51605 0.06300
H 	H 	0.49706 0.68106 0.49709 0.06400
C 	C 	0.56321 0.08247 0.51430 -0.09500
C 	C 	0.51158 0.02583 0.51977 0.00700
C 	C 	0.49465 0.03220 0.53112 0.02500
C 	C 	0.52916 0.09577 0.53676 -0.01300
C 	C 	0.58045 0.15263 0.53124 -0.11300
C 	C 	0.59739 0.14614 0.51990 0.10200
C 	C 	0.47443 0.96043 0.51341 0.00300
C 	C 	0.44025 0.97137 0.53725 -0.17400
C 	C 	0.65311 0.20603 0.51391 -0.20700
C 	C 	0.42314 0.94992 0.50595 0.01700
C 	C 	0.41443 0.84230 0.49951 -0.11300
C 	C 	0.46236 0.85034 0.50761 0.10400
C 	C 	0.49311 0.91028 0.51431 -0.09500
C 	C 	0.48218 0.79635 0.50894 -0.20800
H 	H 	0.53203 0.91825 0.52015 0.05100
H 	H 	0.69989 0.21618 0.51786 0.07300
H 	H 	0.64786 0.25240 0.51463 0.07500
H 	H 	0.39379 0.95199 0.53242 0.06200
H 	H 	0.39152 0.01610 0.51363 0.06100
H 	H 	0.51594 0.80147 0.50191 0.07300
H 	H 	0.43858 0.74396 0.50877 0.08100
H 	H 	0.50749 0.80195 0.51724 0.06700
C 	C 	0.01455 0.55310 0.50845 0.00600
C 	C 	0.06512 0.54053 0.51187 0.02500
C 	C 	0.12131 0.56455 0.50502 -0.01600
C 	C 	0.95427 0.52790 0.51539 0.00100
C 	C 	0.05824 0.49913 0.52250 -0.17200
H 	H 	0.16187 0.55875 0.50798 0.04400
C 	C 	0.95282 0.56390 0.52521 0.01600
C 	C 	0.89723 0.53436 0.53229 -0.01200
C 	C 	0.84083 0.47300 0.52905 -0.11300
C 	C 	0.83936 0.44350 0.51824 0.10100
C 	C 	0.89722 0.46867 0.51187 -0.09700
C 	C 	0.00972 0.63385 0.52809 -0.15700
H 	H 	0.89808 0.55892 0.54034 0.04300
C 	C 	0.77698 0.38548 0.51342 -0.20600
H 	H 	0.01170 0.44924 0.52220 0.06600
H 	H 	0.05867 0.52786 0.53025 0.06400
H 	H 	0.09876 0.48766 0.52329 0.06100
H 	H 	0.99625 0.66016 0.53471 0.05400
H 	H 	0.02573 0.66715 0.52036 0.06300
H 	H 	0.05123 0.62889 0.53140 0.06000
H 	H 	0.73435 0.39149 0.51565 0.08200
H 	H 	0.77010 0.33627 0.51684 0.07600
C 	C 	0.57185 0.38428 0.54144 0.31500
Ni	Ni	0.69357 0.43929 0.55538 1.11100
Ni	Ni	0.72819 0.31667 0.55232 1.11900
Ni	Ni	0.57949 0.27879 0.55583 1.12000
O 	O 	0.59221 0.20228 0.56243 -0.39000
O 	O 	0.54366 0.33825 0.54958 -0.38600
O 	O 	0.70370 0.25603 0.56629 -0.38900
O 	O 	0.80330 0.39831 0.56076 -0.38000
O 	O 	0.66934 0.34624 0.55708 -0.71500
H 	H 	0.67457 0.34432 0.56542 0.15100
C 	C 	0.50552 0.44283 0.53927 0.10200
C 	C 	0.51660 0.46373 0.55171 -0.20700
H 	H 	0.45164 0.49538 0.53584 0.05100
H 	H 	0.49497 0.41732 0.55726 0.08900
H 	H 	0.49367 0.49488 0.55407 0.06800
H 	H 	0.56982 0.49520 0.55347 0.07500
H 	H 	0.51647 0.10091 0.54549 0.03400
H 	H 	0.45238 0.92964 0.53801 0.06400
H 	H 	0.43244 0.98509 0.54603 0.06000
C 	C 	0.59201 0.37493 0.57434 0.28400
C 	C 	0.79617 0.43193 0.56956 0.28600
C 	C 	0.64209 0.21030 0.56891 0.29100
O 	O 	0.61727 0.42414 0.56642 -0.37700
O 	O 	0.56629 0.30894 0.57151 -0.38000
O 	O 	0.75892 0.46066 0.56871 -0.37800
C 	C 	0.84142 0.45130 0.57930 -0.08500
H 	H 	0.86299 0.55706 0.57963 0.03200
H 	H 	0.82976 0.34994 0.58134 0.03100
C 	C 	0.63004 0.15581 0.57716 -0.08400
C 	C 	0.58847 0.08661 0.57420 0.01500
H 	H 	0.56822 0.07301 0.56564 0.03300
H 	H 	0.53839 0.98185 0.58005 0.04400
C 	C 	0.87005 0.51814 0.58383 0.01600
C 	C 	0.85190 0.40176 0.58473 0.01100
C 	C 	0.65719 0.17259 0.58819 0.01300
C 	C 	0.57193 0.03491 0.58234 -0.06700
H 	H 	0.61549 0.94212 0.59481 0.03700
H 	H 	0.68975 0.22581 0.59053 0.03000
C 	C 	0.58645 0.39334 0.58625 -0.08500
C 	C 	0.63512 0.45592 0.59088 0.01200
C 	C 	0.53371 0.34771 0.59314 0.01400
H 	H 	0.67665 0.49103 0.58572 0.03000
H 	H 	0.49578 0.29930 0.58968 0.03400
C 	C 	0.90710 0.53472 0.59385 -0.07000
C 	C 	0.88910 0.41844 0.59478 -0.06900
H 	H 	0.92856 0.58631 0.59732 0.04500
C 	C 	0.59672 0.05182 0.59352 0.02500
C 	C 	0.64035 0.12075 0.59637 -0.06600
C 	C 	0.63070 0.47307 0.60223 -0.06600
C 	C 	0.52923 0.36500 0.60449 -0.06600
H 	H 	0.66834 0.52164 0.60570 0.04400
C 	C 	0.95358 0.50205 0.61021 -0.01700
C 	C 	0.01511 0.50684 0.61044 -0.02100
C 	C 	0.91603 0.48475 0.59946 0.03100
H 	H 	0.03362 0.49408 0.60290 0.03600
H 	H 	0.89612 0.37964 0.59903 0.04400
C 	C 	0.57251 0.99819 0.60243 -0.00100
C 	C 	0.58462 0.94309 0.60159 -0.03900
C 	C 	0.55590 0.88854 0.60938 -0.03900
H 	H 	0.56515 0.84599 0.60864 0.03700
H 	H 	0.66004 0.13423 0.60497 0.04500
C 	C 	0.57750 0.42793 0.60906 0.02600
H 	H 	0.48772 0.33004 0.60966 0.04500
H 	H 	0.56302 0.53627 0.61492 0.03800
C 	C 	0.93010 0.51878 0.62004 -0.02900
C 	C 	0.05365 0.52997 0.62031 -0.04900
H 	H 	0.88250 0.51498 0.61994 0.03500
H 	H 	0.10147 0.53429 0.62038 0.04200
C 	C 	0.51471 0.88863 0.61803 -0.00100
C 	C 	0.50362 0.94432 0.61899 -0.03900
C 	C 	0.53241 0.99887 0.61123 -0.03700
H 	H 	0.38627 0.79295 0.61980 0.04600
H 	H 	0.52250 0.04099 0.61191 0.03700
C 	C 	0.57002 0.44865 0.62071 -0.00100
C 	C 	0.55128 0.52365 0.63317 -0.03800
C 	C 	0.56215 0.50610 0.62224 -0.03900
H 	H 	0.54332 0.56693 0.63419 0.04000
C 	C 	0.03091 0.54844 0.63003 0.01700
C 	C 	0.96864 0.54184 0.62992 -0.05800
H 	H 	0.14116 0.67201 0.63225 0.04500
C 	C 	0.48432 0.83137 0.62625 0.02700
C 	C 	0.41615 0.78856 0.62643 -0.06800
C 	C 	0.38618 0.74278 0.63551 0.01600
H 	H 	0.33331 0.71264 0.63589 0.03300
H 	H 	0.47246 0.94513 0.62573 0.03900
C 	C 	0.56858 0.40982 0.63027 -0.03900
H 	H 	0.57509 0.36564 0.62918 0.03800
C 	C 	0.13060 0.63945 0.63972 -0.06300
C 	C 	0.07285 0.57557 0.64023 0.02100
C 	C 	0.52259 0.82439 0.63476 -0.06700
H 	H 	0.95056 0.55555 0.63741 0.04000
C 	C 	0.55779 0.42746 0.64123 -0.03900
C 	C 	0.54828 0.48399 0.64271 -0.00000
C 	C 	0.17665 0.65955 0.64853 0.01400
C 	C 	0.05890 0.53460 0.65005 -0.06200
H 	H 	0.22279 0.70710 0.64771 0.03600
C 	C 	0.42421 0.73986 0.64451 -0.09100
C 	C 	0.49265 0.77883 0.64386 0.01800
H 	H 	0.57532 0.85662 0.63461 0.04600
C 	C 	0.22042 0.62649 0.66527 0.29200
C 	C 	0.39302 0.70620 0.65534 0.30900
O 	O 	0.33916 0.64590 0.65519 -0.38300
C 	C 	0.52906 0.49803 0.65400 0.02700
H 	H 	0.55570 0.39657 0.64853 0.03700
H 	H 	0.61061 0.60181 0.65524 0.04500
C 	C 	0.16543 0.61563 0.65790 -0.08300
C 	C 	0.10494 0.55466 0.65888 0.01300
H 	H 	0.01382 0.48573 0.65061 0.04700
H 	H 	0.52250 0.77614 0.65068 0.03500
O 	O 	0.26873 0.69095 0.66713 -0.37100
O 	O 	0.22636 0.57219 0.66784 -0.38700
O 	O 	0.41271 0.74186 0.66484 -0.37900
C 	C 	0.46947 0.44939 0.65894 -0.06700
C 	C 	0.56338 0.56449 0.65868 -0.06700
H 	H 	0.44330 0.39733 0.65564 0.04500
C 	C 	0.42844 0.56657 0.67447 0.31200
Ni	Ni	0.34949 0.72493 0.67831 1.11400
Ni	Ni	0.31344 0.57576 0.66811 1.12000
O 	O 	0.27903 0.48990 0.67817 -0.38300
O 	O 	0.40341 0.58898 0.66673 -0.39400
O 	O 	0.33248 0.63482 0.68088 -0.71700
C 	C 	0.44025 0.46980 0.66732 0.01700
C 	C 	0.46990 0.53907 0.67063 -0.09200
C 	C 	0.53374 0.58500 0.66696 0.01900
H 	H 	0.39162 0.43339 0.67034 0.03000
H 	H 	0.55790 0.63823 0.66971 0.03000
H 	H 	0.09502 0.52109 0.66619 0.03400
H 	H 	0.28871 0.61442 0.68435 0.15900
C 	C 	0.47563 0.76410 0.69071 0.30900
C 	C 	0.25929 0.48532 0.68902 0.28900
Ni	Ni	0.37806 0.61909 0.69283 1.12000
O 	O 	0.40943 0.55946 0.68524 -0.38600
O 	O 	0.43102 0.78164 0.68878 -0.37200
O 	O 	0.46349 0.70199 0.68823 -0.39100
O 	O 	0.29621 0.71255 0.69311 -0.37200
H 	H 	0.59815 0.78269 0.68947 0.03300
C 	C 	0.20681 0.41927 0.69324 -0.08200
C 	C 	0.14832 0.41460 0.69701 0.01300
C 	C 	0.22173 0.36849 0.69652 0.01600
H 	H 	0.13549 0.45260 0.69431 0.02800
H 	H 	0.26605 0.37069 0.69345 0.03300
C 	C 	0.30769 0.68964 0.70285 0.28500
O 	O 	0.29517 0.53269 0.69676 -0.38600
O 	O 	0.35743 0.67745 0.70384 -0.37800
C 	C 	0.63729 0.83251 0.70561 -0.06800
C 	C 	0.59030 0.80649 0.69692 0.01600
C 	C 	0.53157 0.80739 0.69816 -0.09400
C 	C 	0.52285 0.84000 0.70772 0.01700
H 	H 	0.68124 0.82897 0.70479 0.04500
H 	H 	0.47793 0.84145 0.70875 0.03700
C 	C 	0.10992 0.36545 0.70521 -0.06400
C 	C 	0.13036 0.32132 0.70978 0.02700
C 	C 	0.18395 0.31997 0.70484 -0.06500
H 	H 	0.06717 0.36521 0.70864 0.04600
H 	H 	0.19936 0.28502 0.70808 0.04500
H 	H 	0.17933 0.64610 0.70598 0.03200
C 	C 	0.10434 0.28715 0.72093 0.00000
C 	C 	0.08346 0.21697 0.72231 -0.03800
H 	H 	0.07969 0.18573 0.71496 0.03800
C 	C 	0.27640 0.69584 0.71332 -0.08200
C 	C 	0.20955 0.67484 0.71320 0.01400
H 	H 	0.13112 0.67945 0.72173 0.04700
C 	C 	0.62583 0.85947 0.71562 0.02600
C 	C 	0.56967 0.86566 0.71643 -0.06800
C 	C 	0.31473 0.73203 0.72282 0.01400
C 	C 	0.18226 0.69385 0.72210 -0.06500
H 	H 	0.36639 0.74850 0.72303 0.03400
C 	C 	0.67426 0.82028 0.73079 -0.04000
C 	C 	0.66833 0.87368 0.72571 0.00100
C 	C 	0.69918 0.93918 0.73075 -0.04200
H 	H 	0.65028 0.76941 0.72699 0.03800
H 	H 	0.69502 0.98074 0.72688 0.03900
H 	H 	0.56070 0.88708 0.72408 0.04600
C 	C 	0.10796 0.32669 0.73053 -0.03700
C 	C 	0.07023 0.18776 0.73327 -0.03900
H 	H 	0.12419 0.38093 0.72959 0.04000
H 	H 	0.05641 0.13418 0.73431 0.03900
C 	C 	0.17884 0.81231 0.73615 -0.03900
C 	C 	0.22156 0.73394 0.73121 0.02600
C 	C 	0.28738 0.75108 0.73173 -0.06600
H 	H 	0.18568 0.82948 0.72732 0.04000
C 	C 	0.09425 0.29733 0.74145 -0.03900
C 	C 	0.07719 0.22834 0.74291 0.00300
C 	C 	0.15343 0.83955 0.74406 -0.03700
C 	C 	0.19537 0.76299 0.73962 0.00000
H 	H 	0.14047 0.87731 0.74129 0.04000
H 	H 	0.31796 0.78152 0.73879 0.04500
C 	C 	0.73927 0.89703 0.74612 -0.00500
C 	C 	0.70971 0.83197 0.74094 -0.03700
C 	C 	0.73437 0.95077 0.74094 -0.03100
H 	H 	0.71370 0.79035 0.74483 0.03600
H 	H 	0.75706 0.00121 0.74488 0.03100
H 	H 	0.09946 0.32894 0.74884 0.04000
C 	C 	0.77450 0.90869 0.75706 0.03000
C 	C 	0.84080 0.95892 0.75781 -0.07100
H 	H 	0.86708 0.98728 0.75025 0.04600
C 	C 	0.07294 0.20070 0.75453 0.02200
C 	C 	0.02191 0.19066 0.76187 -0.05200
C 	C 	0.12226 0.18843 0.75852 -0.06500
H 	H 	0.98364 0.20006 0.75885 0.03100
H 	H 	0.16218 0.19671 0.75293 0.04500
C 	C 	0.14429 0.81765 0.75550 -0.00300
C 	C 	0.18672 0.74146 0.75108 -0.03900
C 	C 	0.16118 0.76862 0.75900 -0.03700
H 	H 	0.19896 0.94875 0.76328 0.04700
H 	H 	0.19944 0.70348 0.75384 0.03800
C 	C 	0.15145 0.91491 0.76700 -0.07100
C 	C 	0.11628 0.84539 0.76380 0.03300
H 	H 	0.02687 0.74857 0.76610 0.05200
C 	C 	0.74127 0.87146 0.76688 -0.07000
C 	C 	0.87301 0.97357 0.76835 0.02300
H 	H 	0.69007 0.83248 0.76638 0.04500
H 	H 	0.92400 0.01320 0.76886 0.02200
C 	C 	0.02023 0.16853 0.77314 0.02600
C 	C 	0.12076 0.16645 0.76977 0.01500
H 	H 	0.15935 0.15745 0.77274 0.03400
C 	C 	0.12583 0.94062 0.77517 0.02100
C 	C 	0.05460 0.80217 0.76860 -0.07700
H 	H 	0.15448 0.75160 0.76784 0.03800
C 	C 	0.06572 0.12867 0.78881 0.28900
C 	C 	0.83929 0.93800 0.77824 -0.09200
C 	C 	0.77363 0.88594 0.77743 0.01800
C 	C 	0.06973 0.15635 0.77717 -0.08800
H 	H 	0.97995 0.15981 0.77866 0.01900
C 	C 	0.06479 0.89700 0.78020 -0.09600
C 	C 	0.02888 0.82781 0.77675 0.04400
H 	H 	0.15370 0.99422 0.77767 0.02900
H 	H 	0.98187 0.79346 0.78059 0.01600
H 	H 	0.74714 0.85825 0.78502 0.03100
C 	C 	0.87145 0.95932 0.78945 0.29300
C 	C 	0.04097 0.92232 0.78965 0.31100
O 	O 	0.86153 0.91186 0.79727 -0.37500
O 	O 	0.90385 0.02597 0.79196 -0.38900
O 	O 	0.03281 0.14038 0.79693 -0.37600
O 	O 	0.09904 0.09683 0.79124 -0.38600
O 	O 	0.97695 0.89151 0.79153 -0.39200
O 	O 	0.08377 0.96256 0.79755 -0.38500
H 	H 	0.99142 0.00244 0.79511 0.14500
Ni	Ni	0.93742 0.90871 0.80621 1.10900
Ni	Ni	0.08355 0.04311 0.80583 1.11900
Ni	Ni	0.95924 0.06404 0.80620 1.11300
O 	O 	0.99201 0.00309 0.80353 -0.72400
H 	H 	0.17565 0.98423 0.81272 0.06600
C 	C 	0.04894 0.92877 0.82164 0.31800
C 	C 	0.86982 0.95463 0.82264 0.31000
C 	C 	0.06852 0.13579 0.82219 0.31300
O 	O 	0.10618 0.13056 0.81440 -0.39000
O 	O 	0.00078 0.88500 0.81504 -0.36600
O 	O 	0.06957 0.99486 0.82107 -0.39200
O 	O 	0.90394 0.92323 0.82179 -0.38900
O 	O 	0.87529 0.99966 0.81483 -0.38200
O 	O 	0.00447 0.09959 0.82131 -0.38800
C 	C 	0.19364 0.99501 0.82169 -0.19600
H 	H 	0.22238 0.80725 0.82868 0.06400
H 	H 	0.19343 0.04149 0.82487 0.06000
H 	H 	0.24516 0.00638 0.82157 0.06000
H 	H 	0.03284 0.23058 0.82584 0.03600
C 	C 	0.75391 0.91844 0.82716 -0.01600
C 	C 	0.63573 0.88280 0.83055 -0.17200
H 	H 	0.74898 0.93353 0.81856 0.04400
H 	H 	0.59649 0.82805 0.83044 0.06200
H 	H 	0.63966 0.90389 0.82179 0.06000
C 	C 	0.19332 0.76120 0.83412 -0.17300
C 	C 	0.08241 0.90338 0.82923 -0.12000
C 	C 	0.15151 0.93435 0.82929 0.10300
C 	C 	0.18138 0.90786 0.83646 -0.09700
H 	H 	0.23427 0.93267 0.83681 0.05200
H 	H 	0.14102 0.73661 0.83161 0.06500
H 	H 	0.21009 0.72376 0.83240 0.06000
H 	H 	0.25288 0.44004 0.83922 0.05100
C 	C 	0.10506 0.29796 0.83809 0.02400
C 	C 	0.07440 0.23944 0.83105 -0.01000
C 	C 	0.09803 0.19317 0.83048 -0.11000
C 	C 	0.15226 0.20471 0.83728 0.10200
C 	C 	0.07876 0.34694 0.83858 -0.17200
H 	H 	0.31718 0.56113 0.84100 0.06600
H 	H 	0.03391 0.32861 0.83330 0.06200
H 	H 	0.11606 0.39820 0.83531 0.06500
H 	H 	0.20462 0.15985 0.82938 0.07200
C 	C 	0.69930 0.88866 0.83445 0.02400
C 	C 	0.81460 0.92804 0.83085 -0.11100
H 	H 	0.62160 0.91195 0.83646 0.06400
H 	H 	0.61005 0.72944 0.83631 0.06100
C 	C 	0.04469 0.84486 0.83597 0.01800
H 	H 	0.99184 0.82102 0.83590 0.01600
C 	C 	0.17659 0.15399 0.83734 -0.20700
H 	H 	0.13499 0.10049 0.83794 0.08100
C 	C 	0.31561 0.56233 0.85051 -0.20300
H 	H 	0.30200 0.60142 0.85294 0.07300
C 	C 	0.17673 0.82361 0.85077 0.00100
C 	C 	0.20144 0.78203 0.84656 0.02500
C 	C 	0.23441 0.76046 0.85403 -0.01600
C 	C 	0.14359 0.84903 0.84307 0.01100
H 	H 	0.25430 0.72936 0.85079 0.03600
C 	C 	0.07469 0.81666 0.84274 0.00800
C 	C 	0.03312 0.75291 0.84974 -0.14100
H 	H 	0.98049 0.72929 0.84751 0.04000
H 	H 	0.04797 0.71381 0.84815 0.05900
C 	C 	0.23905 0.43486 0.84818 -0.09200
C 	C 	0.19213 0.37034 0.85244 0.00200
C 	C 	0.26705 0.49298 0.85537 0.09500
C 	C 	0.16059 0.31067 0.84456 0.00500
C 	C 	0.18421 0.26446 0.84401 -0.09500
H 	H 	0.22667 0.27428 0.84904 0.05100
H 	H 	0.36528 0.57826 0.85382 0.07700
H 	H 	0.06619 0.35218 0.84755 0.06500
H 	H 	0.20911 0.16243 0.84479 0.06600
C 	C 	0.76547 0.87586 0.84920 -0.09500
C 	C 	0.70478 0.86551 0.84543 0.00300
C 	C 	0.82102 0.90910 0.84216 0.09800
C 	C 	0.64826 0.83513 0.85339 0.00400
C 	C 	0.88657 0.92407 0.84679 -0.20300
C 	C 	0.60209 0.76401 0.85316 0.02300
C 	C 	0.54673 0.73772 0.86030 -0.01700
C 	C 	0.61185 0.71611 0.84541 -0.17100
H 	H 	0.51003 0.68363 0.85987 0.03400
H 	H 	0.89836 0.88489 0.84360 0.07700
H 	H 	0.92557 0.97614 0.84414 0.07900
H 	H 	0.57350 0.66159 0.84674 0.05800
H 	H 	0.66000 0.72042 0.84718 0.06200
C 	C 	0.18424 0.84204 0.86236 -0.09400
C 	C 	0.24154 0.77846 0.86566 -0.10700
H 	H 	0.03889 0.76621 0.85899 0.05900
C 	C 	0.17432 0.36310 0.86412 0.02600
C 	C 	0.24933 0.48559 0.86706 -0.10200
H 	H 	0.76974 0.85922 0.85773 0.05000
C 	C 	0.64084 0.87797 0.86123 -0.09500
C 	C 	0.47930 0.75228 0.87523 0.29500
C 	C 	0.27421 0.75281 0.87336 0.29800
C 	C 	0.27740 0.54518 0.87490 0.29400
O 	O 	0.44550 0.78511 0.87555 -0.38200
O 	O 	0.46890 0.70238 0.88268 -0.38000
O 	O 	0.34164 0.57771 0.87680 -0.39100
O 	O 	0.23643 0.55261 0.88186 -0.38200
O 	O 	0.32362 0.79808 0.87991 -0.37600
O 	O 	0.24813 0.68514 0.87456 -0.38800
H 	H 	0.34497 0.68583 0.87890 0.15800
C 	C 	0.21483 0.81833 0.86993 0.10100
C 	C 	0.21544 0.83250 0.88259 -0.20800
H 	H 	0.16494 0.87379 0.86554 0.05100
C 	C 	0.20347 0.42068 0.87135 -0.01600
C 	C 	0.12446 0.29405 0.86890 -0.17400
H 	H 	0.19047 0.41503 0.88035 0.04500
H 	H 	0.14307 0.25745 0.86824 0.06500
H 	H 	0.07786 0.27339 0.86407 0.06600
H 	H 	0.11376 0.29762 0.87806 0.06300
C 	C 	0.53850 0.78097 0.86796 -0.10400
C 	C 	0.58750 0.85119 0.86878 0.10000
C 	C 	0.58390 0.89752 0.87777 -0.20600
H 	H 	0.67702 0.93228 0.86151 0.05000
H 	H 	0.88646 0.92278 0.85630 0.06300
H 	H 	0.54545 0.91013 0.87546 0.07100
H 	H 	0.63100 0.94660 0.87855 0.06600
Ni	Ni	0.39079 0.78271 0.88962 1.11100
Ni	Ni	0.25137 0.64114 0.88948 1.12100
Ni	Ni	0.38317 0.63469 0.89090 1.11900
O 	O 	0.34334 0.68758 0.88733 -0.72200
H 	H 	0.18947 0.86119 0.88451 0.06900
H 	H 	0.26638 0.86409 0.88572 0.08400
H 	H 	0.57316 0.87221 0.88629 0.08200
O 	O 	0.24278 0.71806 0.89695 -0.39200
O 	O 	0.46949 0.79252 0.89931 -0.38500
O 	O 	0.31191 0.55917 0.90030 -0.39100
H 	H 	0.19017 0.78327 0.88736 0.08600
C 	C 	0.28078 0.75693 0.90527 0.30600
C 	C 	0.46440 0.74687 0.90691 0.31300
C 	C 	0.27966 0.57252 0.90811 0.31000
O 	O 	0.24839 0.60512 0.90532 -0.39100
O 	O 	0.34404 0.78077 0.90480 -0.38400
O 	O 	0.41829 0.68249 0.90607 -0.39400
H 	H 	0.28275 0.45937 0.91569 0.03300
H 	H 	0.15287 0.71605 0.90915 0.03100
C 	C 	0.27784 0.55043 0.92006 -0.08900
C 	C 	0.52968 0.82832 0.92252 0.02000
C 	C 	0.51142 0.76747 0.91641 -0.09600
C 	C 	0.53280 0.72249 0.92016 0.02100
H 	H 	0.51345 0.86341 0.91971 0.02700
H 	H 	0.51977 0.67586 0.91541 0.02500
C 	C 	0.27344 0.58951 0.92906 0.02000
C 	C 	0.27894 0.48975 0.92254 0.01700
H 	H 	0.27413 0.63730 0.92728 0.03900
C 	C 	0.25390 0.78436 0.91392 -0.09300
C 	C 	0.29587 0.83858 0.92121 0.01500
C 	C 	0.27035 0.86723 0.92884 -0.06900
C 	C 	0.16073 0.78727 0.92217 -0.06900
C 	C 	0.18604 0.75833 0.91458 0.01600
H 	H 	0.34822 0.85902 0.92089 0.03300
H 	H 	0.10843 0.76733 0.92248 0.04600
H 	H 	0.22698 0.97370 0.92986 0.03500
C 	C 	0.56642 0.84233 0.93260 -0.07000
C 	C 	0.56947 0.73652 0.93019 -0.07000
H 	H 	0.58471 0.70082 0.93312 0.04500
C 	C 	0.26563 0.50457 0.94279 0.02800
C 	C 	0.26726 0.56660 0.94036 -0.06700
C 	C 	0.27277 0.46688 0.93387 -0.06700
H 	H 	0.27157 0.41888 0.93568 0.04600
C 	C 	0.20273 0.84199 0.92929 0.02800
C 	C 	0.17569 0.87202 0.93736 -0.00300
C 	C 	0.19321 0.94157 0.93645 -0.03500
H 	H 	0.30311 0.90899 0.93440 0.04400
H 	H 	0.18108 0.02351 0.94333 0.04200
C 	C 	0.58520 0.79567 0.93658 0.02800
H 	H 	0.70859 0.89551 0.94161 0.03600
H 	H 	0.57889 0.88848 0.93744 0.04500
C 	C 	0.16696 0.96969 0.94404 -0.04600
C 	C 	0.58866 0.76273 0.95685 -0.03900
C 	C 	0.61951 0.80746 0.94761 -0.00200
C 	C 	0.68440 0.86083 0.94871 -0.04000
C 	C 	0.71862 0.86865 0.95889 -0.03900
H 	H 	0.76886 0.90981 0.95965 0.03600
C 	C 	0.18600 0.44963 0.95868 -0.03700
C 	C 	0.24956 0.47561 0.95444 -0.00100
H 	H 	0.14926 0.45276 0.95356 0.04100
H 	H 	0.34636 0.49246 0.95801 0.03800
H 	H 	0.26222 0.59624 0.94721 0.04800
C 	C 	0.12283 0.92841 0.95256 0.00700
C 	C 	0.10507 0.85882 0.95341 -0.04100
C 	C 	0.13145 0.83079 0.94586 -0.03600
H 	H 	0.11781 0.77714 0.94666 0.03900
H 	H 	0.99752 0.89938 0.95544 0.02700
H 	H 	0.53847 0.72145 0.95608 0.03900
C 	C 	0.29692 0.47179 0.96117 -0.03800
C 	C 	0.09809 0.95870 0.96101 0.01600
C 	C 	0.03074 0.93460 0.96181 -0.04900
H 	H 	0.07154 0.82674 0.96003 0.04200
C 	C 	0.68816 0.82315 0.96805 -0.00200
C 	C 	0.62286 0.77059 0.96704 -0.03900
H 	H 	0.79117 0.80285 0.97096 0.04400
C 	C 	0.16902 0.41734 0.96936 -0.03700
C 	C 	0.28010 0.43992 0.97192 -0.03900
H 	H 	0.11900 0.39483 0.97232 0.04200
C 	C 	0.14074 0.00543 0.96918 -0.06000
C 	C 	0.00578 0.95264 0.97122 0.03300
H 	H 	0.19289 0.02506 0.96855 0.04600
H 	H 	0.95340 0.93067 0.97209 0.01800
C 	C 	0.72471 0.83101 0.97871 0.02700
C 	C 	0.77944 0.82210 0.97858 -0.07000
H 	H 	0.59888 0.73551 0.97410 0.03800
C 	C 	0.19445 0.36595 0.98615 0.02700
C 	C 	0.20109 0.30717 0.98631 -0.06400
C 	C 	0.21558 0.41095 0.97594 0.00100
H 	H 	0.23070 0.30047 0.97991 0.04600
H 	H 	0.31660 0.43583 0.97696 0.03700
C 	C 	0.11578 0.02332 0.97860 0.02200
C 	C 	0.04801 0.99459 0.97992 -0.09400
H 	H 	0.14888 0.05671 0.98516 0.02900
C 	C 	0.82130 0.84187 0.98803 0.01900
H 	H 	0.86544 0.83847 0.98756 0.03400
C 	C 	0.80911 0.87150 0.99765 -0.09800
C 	C 	0.75089 0.87406 0.99818 0.01500
C 	C 	0.02145 0.99779 0.99113 0.29700
O 	O 	0.96872 0.00524 0.99148 -0.38700
O 	O 	0.02481 0.14886 0.99870 -0.37700
C 	C 	0.70899 0.85415 0.98872 -0.06900
H 	H 	0.66606 0.85988 0.98897 0.04500
C 	C 	0.15730 0.37457 0.99471 -0.06500
C 	C 	0.16450 0.25390 0.99399 0.01500
H 	H 	0.15352 0.42075 0.99492 0.04700
H 	H 	0.16626 0.20661 0.99348 0.02900
