data_crystal

_cell_length_a 36.50743
_cell_length_b 36.36390
_cell_length_c 25.14082
_cell_angle_alpha 90.00307
_cell_angle_beta  89.99977
_cell_angle_gamma 120.02976

_symmetry_space_group_name_	'P 1'
_symmetry_space_group_name_H-M	'P 1'

loop_
_symmetry_equiv_pos_as_xyz
  x,y,z

loop_
_atom_site_label
_atom_site_type_symbol
_atom_site_fract_x
_atom_site_fract_y
_atom_site_fract_z
_atom_site_charge
C 	C 	0.54326 0.43470 0.71581 0.30100
C 	C 	0.71897 0.57227 0.72008 0.32000
C 	C 	0.58985 0.53041 0.79539 0.32200
C 	C 	0.67976 0.48691 0.62806 0.30300
C 	C 	0.63426 0.61691 0.65568 0.32000
C 	C 	0.57760 0.52017 0.56739 0.30100
Ni	Ni	0.63587 0.49620 0.73066 1.11200
Ni	Ni	0.66166 0.55710 0.62683 1.11900
Ni	Ni	0.57337 0.52709 0.68328 1.12100
O 	O 	0.58163 0.43917 0.71543 -0.38200
O 	O 	0.53739 0.46818 0.71812 -0.38100
O 	O 	0.66513 0.60865 0.66031 -0.39400
O 	O 	0.68495 0.55587 0.74912 -0.38300
O 	O 	0.71584 0.57119 0.66786 -0.38300
O 	O 	0.55352 0.50431 0.61029 -0.39100
O 	O 	0.60145 0.50157 0.79396 -0.37400
O 	O 	0.59672 0.55453 0.75409 -0.39600
O 	O 	0.61829 0.55088 0.57030 -0.38700
O 	O 	0.67468 0.48276 0.68090 -0.37200
O 	O 	0.66464 0.50676 0.59906 -0.38900
O 	O 	0.59481 0.58573 0.65241 -0.39400
O 	O 	0.61916 0.51716 0.67302 -0.71700
H 	H 	0.60565 0.49189 0.64990 0.16500
C 	C 	0.39567 0.49482 0.21018 0.30000
C 	C 	0.22096 0.35286 0.20499 0.31800
C 	C 	0.34982 0.40727 0.29319 0.31800
C 	C 	0.26947 0.43563 0.10077 0.29600
C 	C 	0.31336 0.30889 0.16185 0.31700
C 	C 	0.36974 0.40199 0.06872 0.30000
Ni	Ni	0.30330 0.43209 0.21414 1.11200
Ni	Ni	0.28407 0.36372 0.12029 1.11900
Ni	Ni	0.37067 0.40130 0.18517 1.12100
O 	O 	0.35787 0.48807 0.19629 -0.38300
O 	O 	0.40473 0.46334 0.21294 -0.37400
O 	O 	0.28177 0.31630 0.16305 -0.39500
O 	O 	0.25281 0.37434 0.23706 -0.38100
O 	O 	0.22753 0.35105 0.15372 -0.38900
O 	O 	0.39375 0.41826 0.11157 -0.38600
O 	O 	0.33468 0.43291 0.28492 -0.37400
O 	O 	0.34438 0.37967 0.25679 -0.39300
O 	O 	0.33097 0.36814 0.07167 -0.38800
O 	O 	0.26736 0.43985 0.15352 -0.37500
O 	O 	0.28166 0.41012 0.07954 -0.39000
O 	O 	0.35270 0.34069 0.16395 -0.38600
O 	O 	0.32373 0.40755 0.16541 -0.71400
H 	H 	0.33775 0.43096 0.13963 0.16000
C 	C 	0.53358 0.13678 0.03585 0.30000
C 	C 	0.36253 0.09938 0.98385 0.31500
C 	C 	0.43621 0.05815 0.09300 0.32100
C 	C 	0.45463 0.17146 0.90751 0.30000
C 	C 	0.37806 0.99068 0.94309 0.32300
C 	C 	0.47748 0.05192 0.87241 0.30000
Ni	Ni	0.44926 0.12928 0.01835 1.11200
Ni	Ni	0.41289 0.07807 0.90788 1.11900
Ni	Ni	0.46360 0.05117 0.98719 1.11700
O 	O 	0.51430 0.15737 0.01959 -0.38300
O 	O 	0.51592 0.09433 0.03135 -0.37600
O 	O 	0.37076 0.02227 0.93842 -0.40100
O 	O 	0.38425 0.09479 0.02159 -0.38400
O 	O 	0.37382 0.09991 0.93400 -0.38600
O 	O 	0.49643 0.06239 0.91950 -0.39400
O 	O 	0.45087 0.09916 0.08888 -0.38400
O 	O 	0.42483 0.03465 0.05050 -0.39300
O 	O 	0.44202 0.05316 0.86223 -0.38500
O 	O 	0.44844 0.17116 0.96015 -0.37400
O 	O 	0.45068 0.13784 0.88163 -0.39000
O 	O 	0.41662 0.99769 0.95258 -0.39400
O 	O 	0.45154 0.09395 0.96570 -0.72000
H 	H 	0.47831 0.11358 0.94764 0.16700
C 	C 	0.42846 0.81920 0.53357 0.30200
C 	C 	0.58924 0.82772 0.48519 0.32000
C 	C 	0.52819 0.88494 0.59295 0.31600
C 	C 	0.49092 0.76352 0.40998 0.29800
C 	C 	0.59461 0.94472 0.44245 0.32300
C 	C 	0.49272 0.89506 0.37079 0.30300
Ni	Ni	0.50468 0.80995 0.51933 1.11200
Ni	Ni	0.54685 0.85677 0.40803 1.11900
Ni	Ni	0.50707 0.89688 0.48535 1.12000
O 	O 	0.44159 0.79287 0.51825 -0.38500
O 	O 	0.45273 0.86151 0.52943 -0.38100
O 	O 	0.59530 0.90924 0.43855 -0.39800
O 	O 	0.56930 0.83457 0.52358 -0.38400
O 	O 	0.57669 0.82575 0.43570 -0.38500
O 	O 	0.47469 0.88876 0.41817 -0.39600
O 	O 	0.50771 0.84323 0.58917 -0.37900
O 	O 	0.54360 0.90807 0.55023 -0.39400
O 	O 	0.52540 0.88877 0.36164 -0.38700
O 	O 	0.49793 0.76401 0.46237 -0.37200
O 	O 	0.50185 0.79884 0.38262 -0.38600
O 	O 	0.55864 0.94442 0.44891 -0.39300
O 	O 	0.50983 0.84804 0.46576 -0.71900
H 	H 	0.48245 0.83169 0.44741 0.16600
C 	C 	0.13091 0.57389 0.90572 0.29500
C 	C 	0.11996 0.72362 0.85004 0.31700
C 	C 	0.06833 0.61300 0.96910 0.31700
C 	C 	0.17737 0.68140 0.77518 0.30000
C 	C 	0.99911 0.60878 0.81981 0.32000
C 	C 	0.04160 0.55111 0.75282 0.29900
Ni	Ni	0.13771 0.65843 0.88781 1.11200
Ni	Ni	0.08484 0.64692 0.77963 1.11900
Ni	Ni	0.04963 0.57239 0.86577 1.11900
O 	O 	0.15633 0.61344 0.88974 -0.38400
O 	O 	0.08866 0.55673 0.90843 -0.38000
O 	O 	0.03436 0.64460 0.81343 -0.39800
O 	O 	0.11164 0.69703 0.88901 -0.38600
O 	O 	0.11669 0.70995 0.80077 -0.37800
O 	O 	0.05188 0.54281 0.80008 -0.39700
O 	O 	0.10934 0.63360 0.96137 -0.38600
O 	O 	0.04294 0.60298 0.92850 -0.39500
O 	O 	0.05153 0.59062 0.73812 -0.38400
O 	O 	0.17894 0.69376 0.82552 -0.37700
O 	O 	0.14087 0.65849 0.74969 -0.38300
O 	O 	0.99942 0.57378 0.83280 -0.39300
O 	O 	0.09708 0.62196 0.83864 -0.71700
H 	H 	0.11213 0.60938 0.82038 0.16500
C 	C 	0.85017 0.39883 0.41292 0.30000
C 	C 	0.82250 0.23142 0.34959 0.32300
C 	C 	0.88602 0.33333 0.47558 0.31500
C 	C 	0.79113 0.29274 0.26772 0.29800
C 	C 	0.95744 0.32981 0.33526 0.32000
C 	C 	0.92929 0.40548 0.26559 0.29800
Ni	Ni	0.82092 0.30763 0.38741 1.11200
Ni	Ni	0.87792 0.31060 0.28704 1.11700
Ni	Ni	0.92007 0.38002 0.37777 1.12100
O 	O 	0.81912 0.36349 0.39172 -0.38000
O 	O 	0.88891 0.40438 0.42074 -0.38000
O 	O 	0.91901 0.29910 0.32558 -0.39500
O 	O 	0.82850 0.25514 0.39122 -0.38400
O 	O 	0.83328 0.24854 0.30192 -0.39200
O 	O 	0.92925 0.41776 0.31535 -0.39000
O 	O 	0.84682 0.32337 0.46444 -0.37300
O 	O 	0.91213 0.33940 0.43671 -0.39300
O 	O 	0.92346 0.36688 0.25451 -0.38600
O 	O 	0.78085 0.28415 0.31940 -0.37300
O 	O 	0.83083 0.31492 0.25147 -0.39800
O 	O 	0.96450 0.36814 0.34684 -0.38700
O 	O 	0.86901 0.33860 0.34496 -0.71700
H 	H 	0.86093 0.35721 0.32603 0.16300
C 	C 	0.01779 0.51496 0.71547 -0.10800
C 	C 	0.98623 0.51325 0.68089 0.12800
C 	C 	0.96655 0.47970 0.64430 -0.09800
C 	C 	0.97059 0.44344 0.64943 -0.00000
C 	C 	0.99862 0.44300 0.68814 0.05900
C 	C 	0.02428 0.47998 0.71769 -0.02700
N 	N 	0.97151 0.54068 0.68655 -0.20400
H 	H 	0.94515 0.48019 0.61476 0.05400
C 	C 	0.94634 0.40674 0.61290 0.00100
N 	N 	0.99980 0.40691 0.69865 -0.19200
H 	H 	0.04778 0.48060 0.74462 0.04600
C 	C 	0.96832 0.39391 0.57886 -0.09900
C 	C 	0.94637 0.36189 0.54106 0.12500
C 	C 	0.90358 0.34892 0.52968 -0.11700
C 	C 	0.88083 0.35924 0.56603 -0.02100
C 	C 	0.90161 0.38643 0.60923 0.05400
H 	H 	0.00228 0.40779 0.58299 0.05400
N 	N 	0.96567 0.34231 0.51784 -0.20400
H 	H 	0.84727 0.34698 0.56020 0.04700
N 	N 	0.87856 0.39215 0.64741 -0.19300
H 	H 	0.99797 0.35384 0.52362 0.08200
H 	H 	0.94811 0.31356 0.49764 0.10100
H 	H 	0.84581 0.37852 0.64330 0.08100
H 	H 	0.89255 0.40836 0.68261 0.08500
H 	H 	0.02207 0.40746 0.72526 0.07900
H 	H 	0.97710 0.37758 0.68325 0.08500
H 	H 	0.97421 0.55570 0.72280 0.10100
H 	H 	0.95198 0.54244 0.65746 0.08400
C 	C 	0.05153 0.59001 0.01947 -0.11600
C 	C 	0.01849 0.59157 0.04690 0.12500
C 	C 	0.99746 0.56274 0.08844 -0.09400
C 	C 	0.00953 0.53318 0.10356 -0.00600
C 	C 	0.04354 0.53266 0.07730 0.06200
C 	C 	0.06441 0.56139 0.03594 -0.02700
N 	N 	0.00735 0.62103 0.03420 -0.20500
H 	H 	0.97180 0.56346 0.10926 0.05500
C 	C 	0.98642 0.50295 0.14695 0.00600
N 	N 	0.05575 0.50413 0.09085 -0.19300
H 	H 	0.08905 0.55965 0.01435 0.05500
C 	C 	0.94905 0.46516 0.13498 -0.10000
C 	C 	0.92883 0.43345 0.17370 0.12500
C 	C 	0.94783 0.43883 0.22441 -0.10700
C 	C 	0.98477 0.47714 0.23659 -0.01800
C 	C 	0.00358 0.50973 0.19882 0.05300
H 	H 	0.93563 0.46043 0.09539 0.05600
N 	N 	0.89069 0.39885 0.16255 -0.20600
H 	H 	0.99899 0.48159 0.27566 0.04500
N 	N 	0.03825 0.54725 0.21241 -0.19100
H 	H 	0.87807 0.39406 0.12418 0.08500
H 	H 	0.87206 0.37794 0.19232 0.09800
H 	H 	0.05146 0.55151 0.25037 0.08100
H 	H 	0.05174 0.57289 0.18610 0.08700
H 	H 	0.08133 0.50449 0.07163 0.08500
H 	H 	0.03985 0.48105 0.11994 0.08900
H 	H 	0.02452 0.64492 0.00643 0.09800
H 	H 	0.98206 0.62113 0.05354 0.08500
C 	C 	0.21622 0.70303 0.74323 -0.10900
C 	C 	0.22606 0.68051 0.70535 0.12700
C 	C 	0.25901 0.70312 0.66909 -0.09800
C 	C 	0.28431 0.74740 0.67274 0.00100
C 	C 	0.27549 0.76985 0.71190 0.05600
C 	C 	0.24131 0.74741 0.74657 -0.02300
N 	N 	0.20514 0.63730 0.70494 -0.20300
H 	H 	0.26635 0.68603 0.63953 0.05700
C 	C 	0.32256 0.76907 0.63931 -0.00000
N 	N 	0.29974 0.81281 0.71654 -0.19200
H 	H 	0.23364 0.76465 0.77552 0.04700
C 	C 	0.32082 0.78785 0.59132 -0.09900
C 	C 	0.35520 0.80472 0.55593 0.12600
C 	C 	0.39158 0.80216 0.56889 -0.11100
C 	C 	0.39307 0.78320 0.61675 -0.02400
C 	C 	0.35954 0.76795 0.65293 0.05600
H 	H 	0.29238 0.78870 0.58114 0.05600
N 	N 	0.35260 0.82221 0.50925 -0.20500
H 	H 	0.42108 0.78141 0.62654 0.04000
N 	N 	0.36316 0.75260 0.70084 -0.19200
H 	H 	0.32571 0.82425 0.50033 0.08400
H 	H 	0.37684 0.83341 0.48108 0.09500
H 	H 	0.39026 0.75101 0.70999 0.08000
H 	H 	0.33985 0.74333 0.73003 0.08600
H 	H 	0.29310 0.82901 0.74589 0.08000
H 	H 	0.32525 0.83058 0.69117 0.08400
H 	H 	0.18419 0.61960 0.73533 0.09400
H 	H 	0.21139 0.62095 0.67541 0.08400
C 	C 	0.63368 0.98501 0.43197 -0.11500
C 	C 	0.65810 0.99028 0.38576 0.13200
C 	C 	0.69770 0.02700 0.38012 -0.10100
C 	C 	0.71092 0.06063 0.41615 0.00100
C 	C 	0.68755 0.05477 0.46337 0.05700
C 	C 	0.64892 0.01700 0.47072 -0.02100
N 	N 	0.64267 0.96149 0.34541 -0.20300
H 	H 	0.71618 0.03136 0.34446 0.05700
C 	C 	0.74089 0.10385 0.39714 0.00300
N 	N 	0.70203 0.08534 0.50156 -0.19200
H 	H 	0.63089 0.01236 0.50688 0.04100
C 	C 	0.72481 0.12542 0.36818 -0.10100
C 	C 	0.75192 0.16484 0.34517 0.13000
C 	C 	0.79594 0.18501 0.35525 -0.11900
C 	C 	0.81231 0.16288 0.38293 -0.01700
C 	C 	0.78514 0.12216 0.40371 0.05500
H 	H 	0.69094 0.11065 0.36189 0.05800
N 	N 	0.73568 0.18287 0.31271 -0.20900
H 	H 	0.84605 0.17812 0.39038 0.04200
N 	N 	0.80162 0.10144 0.43088 -0.19200
H 	H 	0.70296 0.16979 0.30905 0.08700
H 	H 	0.75513 0.20738 0.28729 0.10900
H 	H 	0.83435 0.11522 0.43547 0.08200
H 	H 	0.78223 0.07166 0.44792 0.08600
H 	H 	0.68405 0.08144 0.53565 0.08100
H 	H 	0.73180 0.11258 0.49852 0.08700
H 	H 	0.61093 0.93773 0.34405 0.08400
H 	H 	0.66182 0.96442 0.31293 0.08300
C 	C 	0.44277 0.04059 0.14257 -0.11900
C 	C 	0.40844 0.00560 0.16797 0.12700
C 	C 	0.41641 0.98172 0.20535 -0.09800
C 	C 	0.45803 0.99278 0.21854 0.00200
C 	C 	0.49237 0.02908 0.19509 0.05700
C 	C 	0.48430 0.05289 0.15783 -0.02500
N 	N 	0.36784 0.99500 0.15692 -0.20300
H 	H 	0.39016 0.95454 0.22439 0.05600
C 	C 	0.46521 0.96688 0.25823 0.00000
N 	N 	0.53310 0.04081 0.20738 -0.19200
H 	H 	0.51056 0.07932 0.13797 0.05100
C 	C 	0.46439 0.92960 0.24166 -0.09700
C 	C 	0.47227 0.90491 0.27795 0.12600
C 	C 	0.48295 0.91896 0.33123 -0.10800
C 	C 	0.48373 0.95626 0.34761 -0.02100
C 	C 	0.47405 0.97985 0.31200 0.05900
H 	H 	0.45716 0.91954 0.20053 0.05600
N 	N 	0.46831 0.86738 0.26175 -0.20400
H 	H 	0.49179 0.96693 0.38845 0.04000
N 	N 	0.47339 0.01490 0.32966 -0.19300
H 	H 	0.46172 0.85799 0.22197 0.08400
H 	H 	0.47007 0.84644 0.28862 0.09600
H 	H 	0.48081 0.02469 0.36922 0.08000
H 	H 	0.46477 0.03230 0.30480 0.08600
H 	H 	0.55818 0.06800 0.19038 0.08300
H 	H 	0.54036 0.02299 0.23337 0.08800
H 	H 	0.36102 0.01386 0.13217 0.09600
H 	H 	0.34257 0.96833 0.17455 0.08400
C 	C 	0.52473 0.90535 0.64227 -0.11800
C 	C 	0.55976 0.94318 0.66176 0.12700
C 	C 	0.55323 0.96779 0.69972 -0.10000
C 	C 	0.51268 0.95442 0.72004 -0.00000
C 	C 	0.47802 0.91530 0.70289 0.05800
C 	C 	0.48457 0.89098 0.66461 -0.02300
N 	N 	0.59973 0.95552 0.64515 -0.20400
H 	H 	0.57989 0.99719 0.71390 0.05600
C 	C 	0.50701 0.98146 0.75986 0.00200
N 	N 	0.43838 0.90118 0.72233 -0.19200
H 	H 	0.45786 0.86188 0.65022 0.04900
C 	C 	0.50195 0.01528 0.74218 -0.10000
C 	C 	0.49526 0.04073 0.77863 0.12700
C 	C 	0.49139 0.03069 0.83355 -0.11000
C 	C 	0.49772 0.99764 0.85127 -0.02100
C 	C 	0.50601 0.97325 0.81507 0.05500
H 	H 	0.50369 0.02211 0.69998 0.05500
N 	N 	0.49410 0.07547 0.76085 -0.20400
H 	H 	0.49519 0.99018 0.89335 0.03600
N 	N 	0.51256 0.94183 0.83356 -0.19200
H 	H 	0.49515 0.08162 0.72010 0.08300
H 	H 	0.49444 0.09783 0.78720 0.09600
H 	H 	0.51094 0.93548 0.87430 0.08000
H 	H 	0.51995 0.92387 0.80798 0.08600
H 	H 	0.41308 0.87218 0.70955 0.08200
H 	H 	0.43215 0.91875 0.74999 0.08600
H 	H 	0.60610 0.93579 0.62145 0.09800
H 	H 	0.62524 0.98436 0.65792 0.08300
C 	C 	0.57320 0.16086 0.06674 -0.10800
C 	C 	0.57229 0.17042 0.12126 0.12300
C 	C 	0.61018 0.19086 0.15008 -0.09900
C 	C 	0.64918 0.21029 0.12362 0.00200
C 	C 	0.65024 0.20442 0.06788 0.05600
C 	C 	0.61229 0.17753 0.04068 -0.01800
N 	N 	0.53588 0.16329 0.14486 -0.20300
H 	H 	0.60925 0.19495 0.19271 0.05600
C 	C 	0.68866 0.23551 0.15512 -0.00000
N 	N 	0.68704 0.22554 0.04008 -0.19000
H 	H 	0.61310 0.17154 0.99856 0.03600
C 	C 	0.71785 0.22131 0.15856 -0.09800
C 	C 	0.75375 0.24231 0.19110 0.12000
C 	C 	0.75725 0.27422 0.22695 -0.10900
C 	C 	0.72790 0.28829 0.22384 -0.02400
C 	C 	0.69502 0.27088 0.18607 0.05700
H 	H 	0.71317 0.19439 0.13480 0.05600
N 	N 	0.78445 0.23160 0.18776 -0.20300
H 	H 	0.73135 0.31372 0.24968 0.04000
N 	N 	0.67046 0.28884 0.17880 -0.19200
H 	H 	0.77994 0.20601 0.16412 0.08300
H 	H 	0.81386 0.24980 0.20563 0.08400
H 	H 	0.67408 0.31366 0.20331 0.08100
H 	H 	0.64919 0.27990 0.14713 0.08600
H 	H 	0.68780 0.21966 0.99951 0.07800
H 	H 	0.71463 0.24947 0.05763 0.08600
H 	H 	0.51158 0.16264 0.12248 0.09200
H 	H 	0.53405 0.16449 0.18625 0.08400
C 	C 	0.14620 0.76972 0.86150 -0.12000
C 	C 	0.15168 0.78429 0.91463 0.12700
C 	C 	0.19027 0.81935 0.92990 -0.10300
C 	C 	0.21948 0.84556 0.89126 0.00200
C 	C 	0.20927 0.83613 0.83662 0.05400
C 	C 	0.17370 0.79721 0.82223 -0.01900
N 	N 	0.11968 0.76538 0.95049 -0.20400
H 	H 	0.19705 0.82694 0.97175 0.05600
C 	C 	0.26149 0.88111 0.90843 -0.00000
N 	N 	0.23286 0.86443 0.79816 -0.19300
H 	H 	0.16816 0.78797 0.78072 0.04700
C 	C 	0.29864 0.88287 0.88974 -0.09800
C 	C 	0.33870 0.91670 0.90414 0.12500
C 	C 	0.34147 0.94696 0.94211 -0.11500
C 	C 	0.30436 0.94019 0.96755 -0.01900
C 	C 	0.26463 0.91120 0.94658 0.05700
H 	H 	0.29640 0.85865 0.86259 0.05500
N 	N 	0.37393 0.91991 0.88120 -0.20600
H 	H 	0.30650 0.96200 0.99848 0.04500
N 	N 	0.23028 0.91443 0.96028 -0.19200
H 	H 	0.37120 0.89901 0.85087 0.08200
H 	H 	0.40418 0.94158 0.89458 0.10200
H 	H 	0.23242 0.93508 0.99060 0.08000
H 	H 	0.20224 0.89904 0.93843 0.08500
H 	H 	0.22672 0.85619 0.75799 0.08000
H 	H 	0.25579 0.89556 0.80763 0.08500
H 	H 	0.08900 0.74338 0.93829 0.09900
H 	H 	0.12459 0.77478 0.99037 0.08200
C 	C 	0.99351 0.32304 0.32504 -0.11200
C 	C 	0.99504 0.30152 0.27869 0.13000
C 	C 	0.02860 0.29357 0.27206 -0.10000
C 	C 	0.06387 0.31273 0.30569 0.00100
C 	C 	0.06163 0.33239 0.35315 0.05700
C 	C 	0.02630 0.33722 0.36254 -0.02100
N 	N 	0.96648 0.29150 0.23868 -0.20000
H 	H 	0.02991 0.27735 0.23653 0.05600
C 	C 	0.10547 0.32323 0.28324 0.00300
N 	N 	0.09340 0.34689 0.38953 -0.19200
H 	H 	0.02455 0.35242 0.39882 0.04000
C 	C 	0.12645 0.35947 0.25143 -0.10000
C 	C 	0.16023 0.36578 0.21906 0.12900
C 	C 	0.17772 0.33892 0.22451 -0.11700
C 	C 	0.15774 0.30330 0.25798 -0.01800
C 	C 	0.12110 0.29465 0.28667 0.05500
H 	H 	0.11406 0.38100 0.24838 0.05800
N 	N 	0.17419 0.39607 0.18083 -0.20800
H 	H 	0.17117 0.28279 0.26261 0.04200
N 	N 	0.10183 0.25961 0.31819 -0.19200
H 	H 	0.16484 0.41894 0.18075 0.08700
H 	H 	0.18971 0.39377 0.14754 0.10900
H 	H 	0.11328 0.23843 0.32006 0.08200
H 	H 	0.07578 0.25340 0.34172 0.08500
H 	H 	0.09227 0.36257 0.42381 0.08000
H 	H 	0.11880 0.34157 0.38488 0.08600
H 	H 	0.94782 0.30570 0.23581 0.07500
H 	H 	0.96564 0.27243 0.20704 0.08200
C 	C 	0.25096 0.45423 0.06512 -0.10500
C 	C 	0.21115 0.42860 0.04010 0.11900
C 	C 	0.19305 0.44809 0.01036 -0.08500
C 	C 	0.21588 0.49176 0.99979 -0.01000
C 	C 	0.25775 0.51641 0.01935 0.06500
C 	C 	0.27401 0.49781 0.05410 -0.02800
N 	N 	0.19045 0.38548 0.04386 -0.20400
H 	H 	0.16117 0.42911 0.99498 0.04900
C 	C 	0.19374 0.51232 0.97496 -0.00300
N 	N 	0.28264 0.55754 0.00408 -0.19100
H 	H 	0.30522 0.51709 0.07127 0.03900
C 	C 	0.18776 0.54128 0.00506 -0.08700
C 	C 	0.16958 0.56349 0.98224 0.11300
C 	C 	0.15055 0.55138 0.93116 -0.10400
C 	C 	0.15401 0.52031 0.90220 -0.02700
C 	C 	0.17743 0.50227 0.92244 0.05900
H 	H 	0.19968 0.54848 0.04548 0.05400
N 	N 	0.17199 0.59728 0.00861 -0.20000
H 	H 	0.14042 0.51178 0.86266 0.03800
N 	N 	0.18531 0.47668 0.89077 -0.19300
H 	H 	0.18353 0.60405 0.04755 0.08300
H 	H 	0.16502 0.61858 0.99001 0.09200
H 	H 	0.17184 0.46820 0.85288 0.08000
H 	H 	0.20632 0.46658 0.90231 0.08500
H 	H 	0.31283 0.57606 0.02035 0.08100
H 	H 	0.27313 0.57084 0.97410 0.08400
H 	H 	0.20382 0.36957 0.06290 0.09200
H 	H 	0.16072 0.36717 0.02632 0.08300
C 	C 	0.48096 0.72480 0.37986 -0.10600
C 	C 	0.43909 0.69019 0.37623 0.12300
C 	C 	0.43121 0.65379 0.34735 -0.09600
C 	C 	0.46442 0.65124 0.32280 0.00000
C 	C 	0.50636 0.68569 0.32708 0.05700
C 	C 	0.51405 0.72240 0.35486 -0.02400
N 	N 	0.40636 0.69174 0.39985 -0.20500
H 	H 	0.39913 0.62733 0.34406 0.05600
C 	C 	0.45473 0.61239 0.29229 -0.00100
N 	N 	0.53937 0.68355 0.30529 -0.19300
H 	H 	0.54606 0.74908 0.35749 0.04200
C 	C 	0.44988 0.61212 0.23691 -0.09700
C 	C 	0.43583 0.57445 0.20763 0.12600
C 	C 	0.42519 0.53622 0.23456 -0.10600
C 	C 	0.43401 0.53747 0.28906 -0.02500
C 	C 	0.44812 0.57506 0.31844 0.06000
H 	H 	0.45642 0.64111 0.21665 0.05600
N 	N 	0.43263 0.57514 0.15380 -0.20300
H 	H 	0.42715 0.50850 0.30943 0.05100
N 	N 	0.45423 0.57480 0.37178 -0.19300
H 	H 	0.43909 0.60311 0.13421 0.08300
H 	H 	0.42525 0.54837 0.13083 0.09200
H 	H 	0.44589 0.54635 0.39142 0.08300
H 	H 	0.46776 0.60275 0.39412 0.08500
H 	H 	0.57017 0.70928 0.30837 0.08100
H 	H 	0.53501 0.65626 0.28591 0.08600
H 	H 	0.41103 0.71846 0.42102 0.09300
H 	H 	0.37556 0.66597 0.39704 0.08400
C 	C 	0.30547 0.26668 0.14402 -0.11700
C 	C 	0.33227 0.25108 0.16034 0.13200
C 	C 	0.33344 0.21900 0.13049 -0.10000
C 	C 	0.30625 0.20035 0.08699 0.00300
C 	C 	0.27527 0.21175 0.07548 0.05500
C 	C 	0.27555 0.24528 0.10366 -0.02000
N 	N 	0.35605 0.26596 0.20522 -0.20400
H 	H 	0.35578 0.20876 0.14090 0.05600
C 	C 	0.31243 0.17109 0.05183 -0.00300
N 	N 	0.24586 0.19132 0.03683 -0.19200
H 	H 	0.25376 0.25600 0.09239 0.03300
C 	C 	0.29587 0.12862 0.06734 -0.10000
C 	C 	0.30718 0.10202 0.04006 0.13200
C 	C 	0.33651 0.11867 0.99767 -0.12100
C 	C 	0.34868 0.15934 0.97805 -0.03000
C 	C 	0.33768 0.18615 0.00535 0.06700
H 	H 	0.27503 0.11657 0.10154 0.05500
N 	N 	0.29000 0.06066 0.05479 -0.20500
H 	H 	0.36973 0.17153 0.94413 0.05300
N 	N 	0.35244 0.22653 0.98763 -0.19700
H 	H 	0.26954 0.04884 0.08737 0.08300
H 	H 	0.29555 0.03955 0.03278 0.09500
H 	H 	0.37151 0.23746 0.95371 0.08300
H 	H 	0.34506 0.24739 0.00696 0.09000
H 	H 	0.22388 0.20077 0.02751 0.08000
H 	H 	0.24381 0.16527 0.01663 0.08600
H 	H 	0.35192 0.28580 0.23158 0.09500
H 	H 	0.37726 0.25580 0.21571 0.08300
C 	C 	0.71054 0.47750 0.60299 -0.10700
C 	C 	0.70037 0.43533 0.59157 0.12500
C 	C 	0.72891 0.42823 0.56196 -0.09700
C 	C 	0.76711 0.46244 0.54354 0.00000
C 	C 	0.77788 0.50453 0.55662 0.05800
C 	C 	0.74956 0.51156 0.58658 -0.02300
N 	N 	0.66323 0.40165 0.60823 -0.20500
H 	H 	0.72105 0.39601 0.55241 0.05500
C 	C 	0.79454 0.45381 0.50849 0.00100
N 	N 	0.81521 0.53824 0.54049 -0.19200
H 	H 	0.75753 0.54380 0.59622 0.04500
C 	C 	0.78658 0.44947 0.45363 -0.09800
C 	C 	0.80906 0.43700 0.41992 0.12700
C 	C 	0.83835 0.42660 0.44202 -0.10800
C 	C 	0.84945 0.43527 0.49593 -0.02400
C 	C 	0.82765 0.44863 0.52956 0.05700
H 	H 	0.76262 0.45551 0.43721 0.05600
N 	N 	0.80286 0.43557 0.36646 -0.20300
H 	H 	0.87335 0.42920 0.51247 0.04800
N 	N 	0.83854 0.45627 0.58183 -0.19300
H 	H 	0.77998 0.44164 0.35048 0.08400
H 	H 	0.82200 0.43037 0.34023 0.09300
H 	H 	0.86353 0.45309 0.59674 0.08200
H 	H 	0.82297 0.46618 0.60794 0.08700
H 	H 	0.82275 0.56920 0.55018 0.08100
H 	H 	0.83724 0.53417 0.51864 0.08600
H 	H 	0.64148 0.40579 0.63061 0.09300
H 	H 	0.65587 0.37064 0.59913 0.08300
C 	C 	0.75946 0.58212 0.74499 -0.11400
C 	C 	0.76578 0.54948 0.76609 0.12700
C 	C 	0.80652 0.55894 0.78090 -0.09700
C 	C 	0.84005 0.60091 0.78116 0.00100
C 	C 	0.83296 0.63414 0.76483 0.05700
C 	C 	0.79305 0.62417 0.74487 -0.01900
N 	N 	0.73294 0.50931 0.77306 -0.19500
H 	H 	0.81197 0.53357 0.79363 0.05700
C 	C 	0.88310 0.60896 0.79375 0.00100
N 	N 	0.86398 0.67550 0.76898 -0.19200
H 	H 	0.78803 0.64927 0.72987 0.04100
C 	C 	0.91271 0.62097 0.75254 -0.09800
C 	C 	0.95078 0.62101 0.75996 0.12500
C 	C 	0.95869 0.60731 0.80941 -0.11600
C 	C 	0.92936 0.59600 0.85092 -0.01800
C 	C 	0.89238 0.59831 0.84421 0.05600
H 	H 	0.90557 0.62925 0.71399 0.05600
N 	N 	0.97914 0.63355 0.71925 -0.20100
H 	H 	0.93608 0.58692 0.88920 0.04200
N 	N 	0.86638 0.59114 0.88647 -0.19200
H 	H 	0.97317 0.64433 0.68354 0.08100
H 	H 	0.00672 0.63182 0.72181 0.07400
H 	H 	0.87257 0.58176 0.92310 0.08100
H 	H 	0.84089 0.59652 0.88400 0.08600
H 	H 	0.85896 0.69973 0.75515 0.08200
H 	H 	0.89264 0.68409 0.78783 0.08700
H 	H 	0.70186 0.50298 0.77547 0.05500
H 	H 	0.73868 0.48456 0.78200 0.08200
C 	C 	0.55910 0.52695 0.83617 -0.11700
C 	C 	0.51850 0.51977 0.82128 0.12600
C 	C 	0.48450 0.49856 0.85644 -0.10000
C 	C 	0.49122 0.48959 0.90842 0.00100
C 	C 	0.53285 0.50274 0.92597 0.05800
C 	C 	0.56634 0.52055 0.88927 -0.01700
N 	N 	0.51213 0.53373 0.77395 -0.21100
H 	H 	0.45280 0.48992 0.84371 0.05400
C 	C 	0.45426 0.46455 0.94321 0.00100
N 	N 	0.54081 0.49823 0.97771 -0.19400
H 	H 	0.59773 0.52777 0.90151 0.04100
C 	C 	0.44097 0.42164 0.95253 -0.09900
C 	C 	0.40862 0.39800 0.98922 0.12500
C 	C 	0.38922 0.41776 0.01661 -0.10800
C 	C 	0.39869 0.45877 0.00195 -0.01800
C 	C 	0.43214 0.48306 0.96696 0.05400
H 	H 	0.45679 0.40704 0.93250 0.05400
N 	N 	0.39690 0.35671 0.99868 -0.20700
H 	H 	0.38268 0.47328 0.02179 0.03800
N 	N 	0.44385 0.52444 0.95805 -0.19200
H 	H 	0.41229 0.34274 0.97948 0.08200
H 	H 	0.37165 0.33775 0.02385 0.10400
H 	H 	0.42694 0.53756 0.97535 0.07900
H 	H 	0.47021 0.54424 0.93494 0.08500
H 	H 	0.57143 0.50678 0.98992 0.08200
H 	H 	0.51712 0.48762 0.00658 0.09300
H 	H 	0.53625 0.56085 0.75587 0.07500
H 	H 	0.48146 0.52164 0.75916 0.07600
C 	C 	0.55630 0.50896 0.51540 -0.10800
C 	C 	0.54426 0.53625 0.49032 0.12800
C 	C 	0.51097 0.51936 0.45328 -0.09900
C 	C 	0.48864 0.47569 0.44238 0.00000
C 	C 	0.50247 0.44899 0.46483 0.06000
C 	C 	0.53749 0.46645 0.49916 -0.02300
N 	N 	0.56388 0.57838 0.50230 -0.20500
H 	H 	0.50179 0.54012 0.43389 0.05400
C 	C 	0.45255 0.45869 0.40468 0.00000
N 	N 	0.48150 0.40645 0.45509 -0.19200
H 	H 	0.54748 0.44586 0.51738 0.04000
C 	C 	0.45846 0.44812 0.35318 -0.09900
C 	C 	0.42380 0.42471 0.31963 0.12600
C 	C 	0.38343 0.41875 0.33385 -0.11800
C 	C 	0.37782 0.43110 0.38472 -0.02000
C 	C 	0.41175 0.44992 0.42095 0.05400
H 	H 	0.48966 0.45467 0.34096 0.05700
N 	N 	0.42912 0.40658 0.27526 -0.21400
H 	H 	0.34711 0.42642 0.39604 0.04200
N 	N 	0.40493 0.45957 0.47094 -0.19200
H 	H 	0.45919 0.41887 0.25845 0.07900
H 	H 	0.40597 0.37623 0.26349 0.07300
H 	H 	0.37483 0.45338 0.48233 0.08100
H 	H 	0.42915 0.47287 0.49910 0.08700
H 	H 	0.49262 0.38724 0.47078 0.08200
H 	H 	0.45337 0.39179 0.43338 0.08800
H 	H 	0.58985 0.59242 0.52783 0.10300
H 	H 	0.55379 0.59790 0.48489 0.08300
C 	C 	0.46043 0.20834 0.87622 -0.10800
C 	C 	0.42799 0.20566 0.84237 0.12300
C 	C 	0.43424 0.24194 0.81499 -0.10000
C 	C 	0.47311 0.27977 0.81744 0.00000
C 	C 	0.50561 0.28255 0.85098 0.05900
C 	C 	0.49860 0.24688 0.88074 -0.02500
N 	N 	0.39110 0.16846 0.83549 -0.20400
H 	H 	0.40935 0.24016 0.78967 0.05400
C 	C 	0.47991 0.31574 0.78316 0.00100
N 	N 	0.54352 0.31917 0.85467 -0.19200
H 	H 	0.52323 0.24898 0.90685 0.04000
C 	C 	0.47248 0.34718 0.80395 -0.10000
C 	C 	0.48415 0.38440 0.77490 0.13000
C 	C 	0.50743 0.39187 0.72725 -0.11100
C 	C 	0.50729 0.35734 0.70215 -0.02200
C 	C 	0.49485 0.31952 0.73030 0.05900
H 	H 	0.45777 0.34274 0.84269 0.05400
N 	N 	0.47151 0.41179 0.79165 -0.20300
H 	H 	0.52167 0.36169 0.66320 0.04000
N 	N 	0.49859 0.28775 0.70709 -0.19200
H 	H 	0.45737 0.40790 0.82893 0.08600
H 	H 	0.47127 0.43404 0.76569 0.10000
H 	H 	0.51035 0.29123 0.66839 0.08100
H 	H 	0.48953 0.25921 0.72683 0.08700
H 	H 	0.56729 0.32085 0.87946 0.08100
H 	H 	0.54985 0.34625 0.83310 0.08800
H 	H 	0.38706 0.13980 0.84962 0.09100
H 	H 	0.36654 0.16762 0.81316 0.08200
C 	C 	0.64433 0.66028 0.64117 -0.11900
C 	C 	0.61750 0.67598 0.65675 0.13200
C 	C 	0.61879 0.70991 0.62859 -0.10000
C 	C 	0.64820 0.72987 0.58752 0.00200
C 	C 	0.67949 0.71860 0.57798 0.05500
C 	C 	0.67692 0.68341 0.60444 -0.02000
N 	N 	0.59122 0.65924 0.69926 -0.20500
H 	H 	0.59629 0.72019 0.63783 0.05600
C 	C 	0.64293 0.75894 0.55138 0.00100
N 	N 	0.71124 0.74064 0.54254 -0.19200
H 	H 	0.69893 0.67269 0.59431 0.03600
C 	C 	0.65872 0.80126 0.56689 -0.10100
C 	C 	0.64598 0.82693 0.54028 0.13100
C 	C 	0.61595 0.80935 0.49877 -0.11900
C 	C 	0.60479 0.76907 0.47878 -0.02100
C 	C 	0.61759 0.74337 0.50508 0.05800
H 	H 	0.67975 0.81376 0.60086 0.05600
N 	N 	0.66249 0.86828 0.55473 -0.20500
H 	H 	0.58327 0.75630 0.44533 0.04700
N 	N 	0.60441 0.70345 0.48672 -0.19200
H 	H 	0.68344 0.88071 0.58678 0.08500
H 	H 	0.65602 0.88883 0.53291 0.10000
H 	H 	0.58483 0.69192 0.45328 0.08100
H 	H 	0.61389 0.68371 0.50474 0.08600
H 	H 	0.73341 0.73121 0.53439 0.08000
H 	H 	0.71494 0.76796 0.52393 0.08600
H 	H 	0.59332 0.63766 0.72469 0.09500
H 	H 	0.57001 0.66957 0.70902 0.08300
