data_crystal

_cell_length_a 40.88718
_cell_length_b 41.97888
_cell_length_c 25.80233
_cell_angle_alpha 94.49255
_cell_angle_beta  93.35985
_cell_angle_gamma 90.18901

_symmetry_space_group_name_	'P 1'
_symmetry_space_group_name_H-M	'P 1'

loop_
_symmetry_equiv_pos_as_xyz
  x,y,z

loop_
_atom_site_label
_atom_site_type_symbol
_atom_site_fract_x
_atom_site_fract_y
_atom_site_fract_z
_atom_site_charge
C 	C 	0.03743 0.64560 0.82956 0.12700
N 	N 	0.01844 0.61937 0.83327 -0.14400
C 	C 	0.00570 0.61393 0.87916 0.12800
N 	N 	0.01217 0.63461 0.92162 -0.14200
C 	C 	0.03922 0.64463 0.36091 0.12100
N 	N 	0.02456 0.61599 0.34642 -0.14100
C 	C 	0.01505 0.59696 0.38309 0.12700
N 	N 	0.01948 0.60704 0.43436 -0.14300
C 	C 	0.03408 0.63570 0.44901 0.12900
N 	N 	0.04423 0.65436 0.41224 -0.13900
C 	C 	0.77208 0.97362 0.77274 0.31400
O 	O 	0.76142 0.97293 0.72405 -0.26800
O 	O 	0.78919 0.94910 0.78512 -0.53400
O 	O 	0.84121 0.92925 0.34647 -0.44600
C 	C 	0.82963 0.95669 0.36370 0.31000
O 	O 	0.83030 0.96209 0.41424 -0.34000
Cd	Cd	0.89200 0.10522 0.20594 1.24400
Cd	Cd	0.91526 0.07548 0.32839 1.18400
O 	O 	0.85857 0.15360 0.20976 -0.30900
O 	O 	0.87831 0.13451 0.13640 -0.33000
C 	C 	0.86127 0.15662 0.16056 0.27500
O 	O 	0.92768 0.06543 0.18687 -0.35000
O 	O 	0.91911 0.03931 0.26000 -0.42800
C 	C 	0.93585 0.04299 0.21871 0.30100
C 	C 	0.94358 0.13616 0.26994 0.32600
O 	O 	0.86454 0.08440 0.28675 -0.43700
O 	O 	0.94344 0.14496 0.22254 -0.28400
O 	O 	0.91949 0.11779 0.27938 -0.52300
C 	C 	0.84774 0.06444 0.25415 0.30300
O 	O 	0.84999 0.06832 0.20483 -0.32800
Cd	Cd	0.82968 0.13395 0.94047 1.24400
Cd	Cd	0.83746 0.09017 0.81823 1.17900
O 	O 	0.78740 0.17545 0.94463 -0.31200
O 	O 	0.81747 0.16442 0.01406 -0.33500
C 	C 	0.79491 0.18233 0.99383 0.26400
O 	O 	0.86402 0.09436 0.95910 -0.35700
O 	O 	0.88026 0.08474 0.87573 -0.42800
C 	C 	0.87794 0.07564 0.92315 0.29800
C 	C 	0.78390 0.08475 0.90671 0.31200
O 	O 	0.84268 0.14425 0.84439 -0.44700
O 	O 	0.78100 0.09328 0.95606 -0.27100
O 	O 	0.80285 0.10250 0.88255 -0.54300
C 	C 	0.86923 0.15923 0.86340 0.31100
O 	O 	0.87279 0.16302 0.91408 -0.33600
C 	C 	0.83955 0.37291 0.89170 0.12200
N 	N 	0.86246 0.39638 0.90185 -0.14100
C 	C 	0.87490 0.41109 0.86228 0.13000
N 	N 	0.86472 0.40196 0.81232 -0.14300
C 	C 	0.84237 0.37801 0.80180 0.12900
N 	N 	0.82912 0.36397 0.84158 -0.14200
C 	C 	0.85897 0.34833 0.33503 0.12200
N 	N 	0.87220 0.37620 0.32237 -0.14100
C 	C 	0.87641 0.40123 0.35884 0.12900
N 	N 	0.86764 0.39819 0.40817 -0.14300
C 	C 	0.85423 0.37045 0.42102 0.12800
N 	N 	0.85034 0.34534 0.38452 -0.13800
Cd	Cd	0.03134 0.09602 0.72788 1.24300
Cd	Cd	0.99290 0.08720 0.84658 1.19800
O 	O 	0.08161 0.12857 0.73356 -0.31200
O 	O 	0.06542 0.10037 0.66145 -0.33400
C 	C 	0.08777 0.11899 0.68609 0.27500
O 	O 	0.99140 0.05898 0.70682 -0.34800
O 	O 	0.96008 0.07529 0.77490 -0.42000
C 	C 	0.96650 0.05429 0.73623 0.29900
C 	C 	0.05876 0.05312 0.79874 0.32300
O 	O 	0.00516 0.13164 0.80266 -0.43300
O 	O 	0.07086 0.04861 0.75309 -0.28900
O 	O 	0.03949 0.07747 0.80431 -0.51700
C 	C 	0.98664 0.14408 0.76674 0.30300
O 	O 	0.99375 0.13639 0.71876 -0.33000
Cd	Cd	0.09327 0.08946 0.46416 1.24400
Cd	Cd	0.06250 0.06993 0.33418 1.18700
O 	O 	0.13831 0.12869 0.47703 -0.30800
O 	O 	0.11644 0.10884 0.54331 -0.34000
C 	C 	0.13835 0.12776 0.52718 0.27400
O 	O 	0.04779 0.06074 0.47273 -0.36000
C 	C 	0.03270 0.04234 0.43453 0.29600
C 	C 	0.05220 0.13333 0.41341 0.32600
O 	O 	0.05430 0.14090 0.46366 -0.28200
O 	O 	0.07087 0.11033 0.39726 -0.52700
C 	C 	0.27757 0.10323 0.87844 0.12100
N 	N 	0.30473 0.08685 0.86474 -0.14100
C 	C 	0.32889 0.08146 0.90132 0.12800
N 	N 	0.32529 0.09145 0.95196 -0.14300
C 	C 	0.29778 0.10707 0.96606 0.12500
N 	N 	0.27412 0.11341 0.92914 -0.13800
C 	C 	0.33550 0.11796 0.43149 0.12200
N 	N 	0.36027 0.09649 0.43022 -0.14000
C 	C 	0.37463 0.08848 0.38496 0.12900
N 	N 	0.36341 0.10106 0.34053 -0.14300
C 	C 	0.33840 0.12225 0.34135 0.12900
N 	N 	0.32444 0.13075 0.38691 -0.14100
C 	C 	0.32476 0.13378 0.29203 -0.04900
C 	C 	0.34566 0.14624 0.25662 0.10200
C 	C 	0.33494 0.14666 0.20398 -0.08500
C 	C 	0.30313 0.13651 0.18690 -0.00500
C 	C 	0.28072 0.12876 0.22386 0.07400
C 	C 	0.29191 0.12696 0.27612 -0.05200
N 	N 	0.37588 0.15793 0.27302 -0.19900
H 	H 	0.35170 0.15398 0.17600 0.05700
C 	C 	0.29528 0.12943 0.13024 -0.00400
N 	N 	0.24862 0.12290 0.20938 -0.19400
H 	H 	0.27542 0.11878 0.30380 0.05600
C 	C 	0.29365 0.09745 0.10991 -0.08300
C 	C 	0.29133 0.08970 0.05591 0.10400
C 	C 	0.29237 0.11442 0.02172 -0.04300
C 	C 	0.29183 0.14641 0.04188 -0.05200
C 	C 	0.29272 0.15418 0.09597 0.07300
H 	H 	0.29466 0.07851 0.13623 0.05900
N 	N 	0.28775 0.05861 0.03716 -0.19600
H 	H 	0.29154 0.16533 0.01553 0.05300
N 	N 	0.29090 0.18529 0.11467 -0.19400
H 	H 	0.28838 0.04040 0.06260 0.09100
H 	H 	0.28286 0.05230 0.99750 0.09500
H 	H 	0.29005 0.20349 0.08921 0.08900
H 	H 	0.28916 0.19163 0.15435 0.09100
H 	H 	0.23244 0.11607 0.23646 0.09400
H 	H 	0.23920 0.12624 0.17171 0.09600
H 	H 	0.38327 0.16062 0.31257 0.09300
H 	H 	0.39174 0.16589 0.24636 0.08700
C 	C 	0.27935 0.12027 0.54942 0.00200
C 	C 	0.25109 0.10769 0.56843 -0.05300
C 	C 	0.22395 0.12771 0.57451 0.02100
C 	C 	0.22556 0.15972 0.56214 -0.00100
C 	C 	0.25216 0.17082 0.53654 -0.05400
C 	C 	0.27921 0.15075 0.53026 0.02500
S 	S 	0.30643 0.09820 0.51737 0.01500
C 	C 	0.31973 0.12594 0.48050 -0.02100
C 	C 	0.30177 0.15386 0.49105 -0.04500
S 	S 	0.18740 0.17148 0.55000 0.03600
C 	C 	0.16750 0.13788 0.55994 -0.06100
C 	C 	0.19142 0.11559 0.57347 -0.02200
H 	H 	0.24921 0.08241 0.57372 0.05400
H 	H 	0.25057 0.19309 0.51798 0.05100
H 	H 	0.30161 0.17379 0.46677 0.05100
H 	H 	0.18612 0.09022 0.57232 0.05200
C 	C 	0.17932 0.09875 0.69202 -0.00300
C 	C 	0.20237 0.08177 0.72104 -0.05200
C 	C 	0.22460 0.09909 0.75601 0.02600
C 	C 	0.22307 0.13263 0.76230 0.00300
C 	C 	0.19769 0.14919 0.73775 -0.05300
C 	C 	0.17592 0.13197 0.70174 0.02400
S 	S 	0.14284 0.08407 0.67061 0.05300
C 	C 	0.12172 0.11812 0.67093 -0.05200
C 	C 	0.14381 0.14285 0.68893 -0.02100
S 	S 	0.24082 0.14436 0.82047 0.01000
C 	C 	0.25118 0.10835 0.83909 -0.01700
C 	C 	0.24126 0.08553 0.79868 -0.04300
H 	H 	0.20115 0.05593 0.71986 0.05500
H 	H 	0.19333 0.17409 0.74952 0.05200
H 	H 	0.13567 0.16657 0.70171 0.05200
H 	H 	0.24469 0.06007 0.80080 0.05300
C 	C 	0.83154 0.36849 0.74726 -0.05000
C 	C 	0.84361 0.34037 0.72116 0.10300
C 	C 	0.84176 0.33703 0.66642 -0.08600
C 	C 	0.82906 0.36165 0.63766 -0.00400
C 	C 	0.81374 0.38802 0.66368 0.07100
C 	C 	0.81480 0.39092 0.71835 -0.05100
N 	N 	0.85778 0.31699 0.74823 -0.20000
H 	H 	0.85224 0.31621 0.64625 0.06100
C 	C 	0.83643 0.36201 0.58206 -0.00400
N 	N 	0.79882 0.41100 0.63659 -0.19400
H 	H 	0.80446 0.41185 0.73847 0.05000
C 	C 	0.81251 0.35139 0.54328 -0.08500
C 	C 	0.81719 0.35502 0.49047 0.10200
C 	C 	0.84778 0.36652 0.47602 -0.04700
C 	C 	0.87235 0.37540 0.51477 -0.05100
C 	C 	0.86674 0.37404 0.56768 0.07400
H 	H 	0.78940 0.34207 0.55444 0.05700
N 	N 	0.79183 0.34891 0.45448 -0.19900
H 	H 	0.89581 0.38397 0.50372 0.05400
N 	N 	0.89042 0.38459 0.60439 -0.19400
H 	H 	0.77003 0.33885 0.46514 0.08900
H 	H 	0.79263 0.35585 0.41663 0.09600
H 	H 	0.91278 0.39318 0.59329 0.08800
H 	H 	0.88687 0.38476 0.64412 0.09200
H 	H 	0.78830 0.43078 0.65621 0.08600
H 	H 	0.79697 0.40926 0.59596 0.08900
H 	H 	0.85880 0.31828 0.78883 0.10100
H 	H 	0.86743 0.29675 0.72858 0.09500
C 	C 	0.89669 0.14896 0.78026 -0.04000
C 	C 	0.89665 0.16473 0.83030 -0.10600
C 	C 	0.92455 0.18266 0.84999 0.13100
C 	C 	0.95390 0.17881 0.82513 -0.05000
C 	C 	0.95514 0.15863 0.77935 -0.09300
C 	C 	0.92559 0.14678 0.75395 0.11400
Br	Br	0.92355 0.12947 0.68269 -0.22000
H 	H 	0.87453 0.13761 0.76237 0.01600
H 	H 	0.97606 0.19034 0.84264 0.06900
Br	Br	0.92240 0.21472 0.90706 -0.22200
C 	C 	0.82321 0.31908 0.00545 0.01000
C 	C 	0.83080 0.29131 0.03014 -0.05400
C 	C 	0.80634 0.26783 0.03045 0.02200
C 	C 	0.77515 0.27236 0.00619 0.00700
C 	C 	0.76944 0.29776 0.97471 -0.05900
C 	C 	0.79376 0.32140 0.97491 0.02100
S 	S 	0.85099 0.34219 0.98193 0.01000
C 	C 	0.82697 0.35674 0.93495 -0.02000
C 	C 	0.79598 0.34238 0.93461 -0.04500
S 	S 	0.75802 0.23654 0.99333 0.02600
C 	C 	0.78810 0.21424 0.01786 -0.05200
C 	C 	0.81359 0.23525 0.03681 -0.02500
H 	H 	0.85560 0.28701 0.04504 0.05600
H 	H 	0.74797 0.29781 0.94801 0.05100
H 	H 	0.77731 0.34396 0.90337 0.05000
H 	H 	0.83841 0.22713 0.04425 0.05700
C 	C 	0.00312 0.14469 0.29004 -0.03800
C 	C 	0.97143 0.14331 0.30775 -0.12100
C 	C 	0.96696 0.14808 0.36160 0.10400
C 	C 	0.99427 0.14903 0.39704 -0.03200
C 	C 	0.02581 0.14511 0.37901 -0.11600
C 	C 	0.03028 0.14613 0.32548 0.09100
Br	Br	0.07325 0.15019 0.30026 -0.28300
H 	H 	0.00671 0.14366 0.24866 0.07800
H 	H 	0.99084 0.15122 0.43848 0.08500
Br	Br	0.92427 0.15544 0.38733 -0.27900
C 	C 	0.86622 0.24726 0.15427 -0.00500
C 	C 	0.88152 0.27386 0.18189 -0.05100
C 	C 	0.86277 0.29376 0.21460 0.02500
C 	C 	0.82951 0.28668 0.21980 0.00300
C 	C 	0.81527 0.25836 0.19652 -0.05200
C 	C 	0.83388 0.23864 0.16323 0.02200
S 	S 	0.88585 0.21379 0.13767 0.05100
C 	C 	0.85516 0.18755 0.13952 -0.05500
C 	C 	0.82754 0.20535 0.15367 -0.01900
S 	S 	0.81894 0.30413 0.27657 0.01100
C 	C 	0.85503 0.32113 0.29584 -0.01700
C 	C 	0.87685 0.31397 0.25680 -0.04300
H 	H 	0.90781 0.27721 0.18178 0.05400
H 	H 	0.79163 0.25042 0.20773 0.05300
H 	H 	0.80582 0.19418 0.16654 0.05400
H 	H 	0.90228 0.32158 0.25989 0.05200
C 	C 	0.45123 0.01949 0.37080 -0.00500
N 	N 	0.49154 0.02879 0.28514 -0.19400
C 	C 	0.45689 0.04788 0.40248 -0.08500
C 	C 	0.43214 0.07081 0.40803 0.10100
C 	C 	0.40071 0.06439 0.38316 -0.04900
C 	C 	0.39456 0.03515 0.35404 -0.05200
C 	C 	0.41953 0.01259 0.34751 0.07200
N 	N 	0.43903 0.09919 0.43580 -0.19900
H 	H 	0.37035 0.03013 0.33570 0.05300
N 	N 	0.41299 0.98458 0.31847 -0.19400
H 	H 	0.46215 0.10343 0.45461 0.08800
H 	H 	0.42192 0.11756 0.43813 0.09400
H 	H 	0.38966 0.97997 0.30067 0.08800
H 	H 	0.43075 0.96694 0.31384 0.09100
H 	H 	0.50546 0.03229 0.25332 0.08700
H 	H 	0.47271 0.04484 0.29308 0.09100
C 	C 	0.46941 0.00974 0.87162 -0.08600
C 	C 	0.43899 0.00319 0.84494 -0.00500
H 	H 	0.47226 0.03065 0.89903 0.05600
C 	C 	0.41044 0.02291 0.85921 -0.00500
C 	C 	0.40560 0.05212 0.83714 -0.08600
C 	C 	0.37962 0.07213 0.85144 0.10200
C 	C 	0.35738 0.06200 0.88704 -0.05000
C 	C 	0.36223 0.03277 0.90906 -0.05200
C 	C 	0.38873 0.01320 0.89591 0.07100
H 	H 	0.42250 0.05961 0.80950 0.05600
N 	N 	0.37677 0.10129 0.83206 -0.19900
H 	H 	0.34527 0.02517 0.93653 0.05000
H 	H 	0.39271 0.10811 0.80461 0.08800
H 	H 	0.35963 0.11792 0.84532 0.09500
H 	H 	0.38746 0.98705 0.78068 0.09200
C 	C 	0.83488 0.97880 0.27794 -0.04200
C 	C 	0.82406 0.98262 0.32871 -0.10600
C 	C 	0.81141 0.01242 0.34685 0.12800
C 	C 	0.81634 0.03918 0.31916 -0.05100
C 	C 	0.83198 0.03610 0.27210 -0.09400
C 	C 	0.83812 0.00527 0.24906 0.11200
Br	Br	0.84944 0.99838 0.17788 -0.21500
H 	H 	0.84176 0.95542 0.26146 0.02000
H 	H 	0.80896 0.06254 0.33506 0.06800
Br	Br	0.78424 0.01648 0.40527 -0.22100
C 	C 	0.94502 0.01620 0.44405 -0.04700
C 	C 	0.00428 0.02282 0.44595 -0.08600
C 	C 	0.97275 0.03619 0.44725 0.10000
Br	Br	0.96700 0.08153 0.45234 -0.32200
H 	H 	0.92078 0.02656 0.44203 0.04000
C 	C 	0.89009 0.98436 0.71846 -0.08200
C 	C 	0.88296 0.01663 0.71176 0.11200
C 	C 	0.90855 0.03894 0.71135 -0.04500
C 	C 	0.94139 0.02962 0.71899 -0.08000
C 	C 	0.94855 0.99699 0.72191 0.11200
H 	H 	0.90277 0.06394 0.70903 0.06500
Br	Br	0.83853 0.03146 0.70897 -0.34500
C 	C 	0.77560 0.99825 0.86401 -0.05100
C 	C 	0.76530 0.00046 0.81144 -0.12200
C 	C 	0.75147 0.02948 0.79628 0.12000
C 	C 	0.75407 0.05682 0.83080 -0.06500
C 	C 	0.76906 0.05545 0.88075 -0.11400
C 	C 	0.77679 0.02550 0.89894 0.10000
Br	Br	0.78794 0.02111 0.97133 -0.23000
H 	H 	0.78332 0.97551 0.87753 -0.00500
H 	H 	0.74583 0.07957 0.81787 0.05500
Br	Br	0.72643 0.03226 0.73133 -0.22000
C 	C 	0.89355 0.43049 0.34640 -0.05000
C 	C 	0.88251 0.46114 0.36414 0.10200
C 	C 	0.90347 0.48765 0.36374 -0.08600
C 	C 	0.93393 0.48453 0.34161 -0.00500
C 	C 	0.94314 0.45459 0.31792 0.07100
C 	C 	0.92320 0.42765 0.32167 -0.05200
N 	N 	0.85155 0.46539 0.37991 -0.19900
H 	H 	0.89594 0.51084 0.38027 0.05600
C 	C 	0.95693 0.51213 0.34696 -0.00600
N 	N 	0.97089 0.45160 0.29139 -0.19400
H 	H 	0.93119 0.40434 0.30645 0.05300
C 	C 	0.98423 0.51172 0.38244 -0.08400
C 	C 	0.00539 0.53824 0.39100 0.10000
C 	C 	0.99736 0.56669 0.36718 -0.04700
C 	C 	0.97066 0.56677 0.33043 -0.05300
C 	C 	0.95085 0.53944 0.31904 0.07200
H 	H 	0.98934 0.49046 0.40277 0.05600
N 	N 	0.03386 0.53586 0.42042 -0.19800
H 	H 	0.96500 0.58829 0.31110 0.05300
N 	N 	0.92631 0.53946 0.28106 -0.19400
H 	H 	0.03877 0.51540 0.44009 0.08700
H 	H 	0.05223 0.55327 0.42136 0.09400
H 	H 	0.92134 0.56006 0.26181 0.08700
H 	H 	0.91274 0.51882 0.26898 0.09000
H 	H 	0.97809 0.42921 0.27554 0.08800
H 	H 	0.98490 0.47152 0.28456 0.09000
H 	H 	0.83402 0.44713 0.37389 0.09400
H 	H 	0.84414 0.48777 0.39545 0.08700
C 	C 	0.98571 0.58509 0.88327 -0.05000
C 	C 	0.95645 0.57921 0.85177 0.10300
C 	C 	0.94020 0.54974 0.85220 -0.08600
C 	C 	0.95164 0.52686 0.88550 -0.00500
C 	C 	0.97996 0.53339 0.91896 0.07000
C 	C 	0.99688 0.56240 0.91715 -0.05100
N 	N 	0.94335 0.60201 0.82227 -0.19900
H 	H 	0.91821 0.54483 0.82723 0.05600
C 	C 	0.93377 0.49609 0.88468 -0.00500
N 	N 	0.99093 0.51205 0.95296 -0.19400
H 	H 	0.01907 0.56716 0.94173 0.04900
C 	C 	0.94468 0.46966 0.85394 -0.08600
C 	C 	0.92712 0.44069 0.84949 0.10300
C 	C 	0.89705 0.43886 0.87372 -0.05000
C 	C 	0.88682 0.46490 0.90609 -0.05200
C 	C 	0.90513 0.49342 0.91236 0.07100
H 	H 	0.96708 0.47157 0.83383 0.05600
N 	N 	0.93968 0.41458 0.82328 -0.19900
H 	H 	0.86415 0.46322 0.92555 0.05100
N 	N 	0.89510 0.51808 0.94492 -0.19400
H 	H 	0.96112 0.41650 0.80354 0.08800
H 	H 	0.92934 0.39190 0.82450 0.09700
H 	H 	0.87354 0.51611 0.96433 0.08600
H 	H 	0.90888 0.53909 0.95225 0.09000
H 	H 	0.01208 0.51695 0.97705 0.08500
H 	H 	0.97842 0.49068 0.95642 0.09000
H 	H 	0.95278 0.62526 0.82524 0.09700
H 	H 	0.92246 0.59700 0.79761 0.08800
C 	C 	0.04893 0.65260 0.77845 -0.04900
C 	C 	0.06470 0.62880 0.74722 0.10200
C 	C 	0.06573 0.63165 0.69349 -0.08500
C 	C 	0.05306 0.65876 0.67116 -0.00600
C 	C 	0.04157 0.68455 0.70370 0.07400
C 	C 	0.03911 0.68102 0.75707 -0.05300
N 	N 	0.07910 0.60340 0.76868 -0.19900
H 	H 	0.07579 0.61245 0.66884 0.05600
C 	C 	0.04807 0.65809 0.61363 -0.00300
C 	C 	0.01628 0.65351 0.59065 -0.08600
C 	C 	0.01096 0.64895 0.53633 0.10500
C 	C 	0.03816 0.64686 0.50472 -0.04900
C 	C 	0.06979 0.65303 0.52743 -0.05100
C 	C 	0.07496 0.65928 0.58163 0.07100
H 	H 	0.09052 0.65240 0.50300 0.05100
N 	N 	0.10562 0.66661 0.60256 -0.19400
H 	H 	0.97492 0.64773 0.47462 0.09900
H 	H 	0.12550 0.66648 0.57885 0.08700
H 	H 	0.10986 0.67356 0.64214 0.09100
H 	H 	0.08149 0.60225 0.80902 0.09400
H 	H 	0.08951 0.58522 0.74514 0.08700
C 	C 	0.94972 0.02151 0.94784 -0.05600
C 	C 	0.93392 0.99162 0.94433 -0.08600
C 	C 	0.89948 0.99016 0.94265 0.12300
C 	C 	0.88119 0.01811 0.93861 -0.05900
C 	C 	0.89696 0.04782 0.93868 -0.08500
C 	C 	0.93138 0.04961 0.94560 0.11900
Br	Br	0.95368 0.09015 0.95138 -0.34000
H 	H 	0.97625 0.02285 0.95021 0.04100
H 	H 	0.85480 0.01652 0.93298 0.04200
Br	Br	0.05516 0.07842 0.92080 -0.32600
C 	C 	0.95886 0.01749 0.20243 -0.08200
C 	C 	0.99286 0.02263 0.21075 0.11500
Br	Br	0.01065 0.06515 0.22099 -0.36000
Cd	Cd	0.06043 0.87396 0.23672 1.24300
Cd	Cd	0.03477 0.91761 0.35111 1.18100
O 	O 	0.08969 0.82378 0.24872 -0.31500
O 	O 	0.07387 0.83751 0.17097 -0.34300
C 	C 	0.08783 0.81624 0.19888 0.27400
O 	O 	0.02881 0.91366 0.20696 -0.34900
O 	O 	0.03599 0.94691 0.28194 -0.42800
C 	C 	0.02104 0.93989 0.23576 0.29500
C 	C 	0.00389 0.85319 0.28440 0.30800
O 	O 	0.08604 0.90200 0.32470 -0.44700
O 	O 	0.00604 0.83878 0.23812 -0.27200
O 	O 	0.02919 0.87039 0.30174 -0.53700
C 	C 	0.10518 0.91770 0.29682 0.30600
O 	O 	0.10483 0.90826 0.24745 -0.33400
Cd	Cd	0.00140 0.90701 0.96213 1.24500
Cd	Cd	0.99045 0.93415 0.83507 1.18600
O 	O 	0.04479 0.86756 0.97442 -0.31000
O 	O 	0.01646 0.88644 0.03949 -0.33100
C 	C 	0.03918 0.86703 0.02331 0.27800
O 	O 	0.96727 0.94823 0.97278 -0.35900
O 	O 	0.94932 0.94719 0.88678 -0.42300
C 	C 	0.95301 0.96242 0.93348 0.29600
C 	C 	0.04608 0.95195 0.92900 0.32300
O 	O 	0.98610 0.88397 0.86607 -0.43800
O 	O 	0.04969 0.95077 0.97952 -0.28200
O 	O 	0.02649 0.93086 0.90472 -0.53000
C 	C 	0.95993 0.87135 0.88282 0.30900
O 	O 	0.95778 0.87385 0.93324 -0.33000
C 	C 	0.03136 0.66074 0.91834 0.12300
N 	N 	0.04394 0.66632 0.87218 -0.14100
Cd	Cd	0.79829 0.92085 0.71279 1.24300
Cd	Cd	0.83469 0.94426 0.83881 1.18800
O 	O 	0.74643 0.89054 0.70842 -0.31600
O 	O 	0.76621 0.90809 0.63849 -0.34100
C 	C 	0.74297 0.89267 0.65849 0.27500
O 	O 	0.83990 0.95369 0.69783 -0.34900
O 	O 	0.86937 0.94692 0.77472 -0.42000
C 	C 	0.86422 0.96236 0.73245 0.29800
O 	O 	0.82198 0.89461 0.79614 -0.44300
C 	C 	0.84063 0.87741 0.76582 0.30500
O 	O 	0.83412 0.87863 0.71595 -0.33200
Cd	Cd	0.85843 0.91867 0.44340 1.24500
Cd	Cd	0.89411 0.91950 0.32163 1.17600
O 	O 	0.81257 0.88138 0.44881 -0.31200
O 	O 	0.83151 0.91172 0.51692 -0.33500
C 	C 	0.80931 0.89117 0.49720 0.27500
O 	O 	0.90340 0.94934 0.46081 -0.35800
O 	O 	0.90713 0.96273 0.37672 -0.43900
C 	C 	0.91984 0.96223 0.42486 0.29900
C 	C 	0.90115 0.86877 0.41152 0.31700
O 	O 	0.89661 0.86795 0.46117 -0.26100
O 	O 	0.88322 0.88871 0.38711 -0.54400
C 	C 	0.55098 0.90013 0.78459 0.12200
N 	N 	0.55996 0.88687 0.82970 -0.14000
C 	C 	0.54702 0.89793 0.87496 0.12800
N 	N 	0.52520 0.92223 0.87502 -0.14400
C 	C 	0.51625 0.93552 0.83013 0.12900
N 	N 	0.52907 0.92440 0.78492 -0.14200
C 	C 	0.61081 0.91623 0.33704 0.12200
N 	N 	0.61214 0.90397 0.28687 -0.14000
C 	C 	0.58634 0.90750 0.25218 0.12900
N 	N 	0.55920 0.92311 0.26794 -0.14300
C 	C 	0.55797 0.93580 0.31779 0.12900
N 	N 	0.58402 0.93275 0.35212 -0.14000
O 	O 	0.04711 0.03512 0.39069 -0.43400
O 	O 	0.11402 0.06486 0.37535 -0.43800
C 	C 	0.12458 0.04036 0.39933 0.30700
O 	O 	0.12241 0.04276 0.44975 -0.33800
C 	C 	0.53067 0.95695 0.33213 -0.04900
C 	C 	0.51166 0.95153 0.37484 0.10200
C 	C 	0.48680 0.97314 0.38829 -0.08600
C 	C 	0.47937 0.99880 0.35807 -0.00400
C 	C 	0.49808 0.00395 0.31496 0.07200
C 	C 	0.52371 0.98308 0.30272 -0.05100
N 	N 	0.51631 0.92518 0.40184 -0.19900
H 	H 	0.47235 0.96928 0.42121 0.05700
H 	H 	0.53835 0.98723 0.27014 0.05200
H 	H 	0.48112 0.05286 0.42076 0.05700
H 	H 	0.53204 0.90694 0.38960 0.09500
H 	H 	0.50296 0.92203 0.43441 0.08800
C 	C 	0.49161 0.96106 0.83022 -0.05100
C 	C 	0.49604 0.98928 0.86374 0.10300
C 	C 	0.43557 0.97675 0.80738 0.07200
C 	C 	0.46190 0.95571 0.80078 -0.05300
N 	N 	0.52585 0.99713 0.88759 -0.19900
N 	N 	0.40704 0.97122 0.77813 -0.19400
H 	H 	0.45888 0.93455 0.77395 0.05100
N 	N 	0.39321 0.98525 0.91870 -0.19400
H 	H 	0.37689 0.97822 0.94543 0.08600
H 	H 	0.41295 0.97035 0.91058 0.09000
H 	H 	0.40447 0.95120 0.75144 0.08700
H 	H 	0.54680 0.98421 0.87841 0.09600
H 	H 	0.52860 0.01730 0.91395 0.08800
C 	C 	0.55778 0.88481 0.92453 -0.05000
C 	C 	0.53450 0.87634 0.95961 0.09900
C 	C 	0.54410 0.87527 0.01256 -0.08200
C 	C 	0.57683 0.88084 0.03026 -0.00000
C 	C 	0.60095 0.88380 0.99370 0.06500
C 	C 	0.59111 0.88635 0.94105 -0.05200
N 	N 	0.50306 0.86910 0.94260 -0.19800
H 	H 	0.52589 0.87116 0.04026 0.05600
C 	C 	0.58471 0.88765 0.08691 -0.00600
N 	N 	0.63334 0.88510 0.00909 -0.18900
H 	H 	0.60922 0.89126 0.91359 0.05300
C 	C 	0.58609 0.86221 0.11913 -0.08400
C 	C 	0.58840 0.86800 0.17367 0.10200
C 	C 	0.58999 0.89991 0.19609 -0.04700
C 	C 	0.59104 0.92519 0.16380 -0.05100
C 	C 	0.58765 0.91951 0.10944 0.07500
H 	H 	0.58426 0.83785 0.10176 0.05600
N 	N 	0.58849 0.84292 0.20404 -0.19900
H 	H 	0.59286 0.94956 0.18115 0.05300
N 	N 	0.58637 0.94475 0.07931 -0.19400
H 	H 	0.58691 0.81949 0.18707 0.08800
H 	H 	0.59040 0.84633 0.24460 0.09400
H 	H 	0.58888 0.96810 0.09640 0.09000
H 	H 	0.58244 0.94162 0.03892 0.09400
H 	H 	0.65095 0.88847 0.98221 0.08900
H 	H 	0.64138 0.88177 0.04744 0.09400
H 	H 	0.49605 0.86678 0.90289 0.09400
H 	H 	0.48562 0.86420 0.96900 0.08600
C 	C 	0.94850 0.98288 0.44108 -0.08600
C 	C 	0.98009 0.96974 0.44523 0.10200
C 	C 	0.00777 0.98965 0.44707 -0.05000
H 	H 	0.03199 0.97920 0.44733 0.03200
Br	Br	0.98593 0.92468 0.44689 -0.37600
C 	C 	0.71625 0.87932 0.49660 0.00000
C 	C 	0.68998 0.86870 0.46217 -0.05300
C 	C 	0.66863 0.89156 0.44266 0.02500
C 	C 	0.67380 0.92425 0.45741 0.00300
C 	C 	0.70239 0.93493 0.48607 -0.05200
C 	C 	0.72363 0.91208 0.50599 0.02700
S 	S 	0.75129 0.85979 0.50248 0.04000
C 	C 	0.77675 0.89083 0.51787 -0.05200
C 	C 	0.75740 0.91846 0.51881 -0.01400
S 	S 	0.65448 0.94484 0.41251 0.02400
C 	C 	0.63932 0.91396 0.37362 -0.02000
C 	C 	0.64861 0.88581 0.39597 -0.04500
H 	H 	0.68798 0.84384 0.44743 0.05000
H 	H 	0.70925 0.96000 0.48905 0.06300
H 	H 	0.76792 0.94217 0.51848 0.06100
H 	H 	0.64202 0.86215 0.37866 0.04700
C 	C 	0.92297 0.97456 0.72134 -0.04400
Br	Br	0.99296 0.98293 0.73182 -0.35400
H 	H 	0.92872 0.94979 0.72639 0.05500
C 	C 	0.60604 0.86264 0.67669 0.00200
C 	C 	0.63598 0.84861 0.66497 -0.05300
C 	C 	0.65794 0.86585 0.63780 0.02000
C 	C 	0.65019 0.89692 0.62452 -0.00100
C 	C 	0.62182 0.91216 0.64131 -0.05300
C 	C 	0.59935 0.89451 0.66675 0.02500
S 	S 	0.58486 0.85396 0.72698 0.01000
C 	C 	0.56516 0.88864 0.73557 -0.01900
C 	C 	0.57615 0.90909 0.69975 -0.04600
S 	S 	0.68528 0.91603 0.61926 0.04500
C 	C 	0.71120 0.88632 0.63048 -0.06400
C 	C 	0.69212 0.85978 0.64011 -0.02200
H 	H 	0.64317 0.82624 0.68043 0.05000
H 	H 	0.61873 0.93762 0.63867 0.05300
H 	H 	0.57178 0.93460 0.70285 0.05200
H 	H 	0.70256 0.83923 0.65777 0.04800
N 	N 	0.03286 0.71261 0.68397 -0.19400
H 	H 	0.02823 0.69985 0.78146 0.05500
H 	H 	0.99562 0.65346 0.61515 0.05900
N 	N 	0.97977 0.64738 0.51476 -0.19800
H 	H 	0.95987 0.64750 0.53841 0.09100
H 	H 	0.02333 0.73116 0.70784 0.09400
H 	H 	0.03658 0.71671 0.64534 0.09600
Br	Br	0.87707 0.95016 0.94584 -0.35200
C 	C 	0.93100 0.87194 0.79543 -0.04200
C 	C 	0.93112 0.86315 0.84684 -0.10200
C 	C 	0.90244 0.84977 0.86437 0.13100
C 	C 	0.87286 0.85156 0.83472 -0.04900
C 	C 	0.87195 0.86495 0.78653 -0.09600
C 	C 	0.90174 0.87221 0.76478 0.11600
Br	Br	0.90355 0.88134 0.69315 -0.21600
H 	H 	0.95349 0.87953 0.77970 0.01900
H 	H 	0.85036 0.84353 0.84995 0.06500
Br	Br	0.90359 0.82587 0.92499 -0.21400
C 	C 	0.05260 0.01015 0.92167 -0.04000
C 	C 	0.05845 0.97864 0.90232 -0.12100
C 	C 	0.07016 0.97285 0.85235 0.09800
C 	C 	0.07105 0.99753 0.81941 -0.03600
C 	C 	0.06181 0.02857 0.83669 -0.11600
C 	C 	0.05536 0.03535 0.88962 0.09300
H 	H 	0.04522 0.01500 0.96116 0.06700
H 	H 	0.07824 0.99239 0.77990 0.07800
Br	Br	0.08487 0.93115 0.82827 -0.26600
C 	C 	0.07010 0.78255 0.04599 0.00100
C 	C 	0.08187 0.75507 0.01905 -0.05400
C 	C 	0.06158 0.72790 0.01253 0.03000
C 	C 	0.02997 0.72888 0.03141 0.00200
C 	C 	0.01652 0.75775 0.05062 -0.05500
C 	C 	0.03716 0.78467 0.05863 0.02700
S 	S 	0.08294 0.81921 0.03803 0.05300
C 	C 	0.04868 0.83921 0.05134 -0.05300
C 	C 	0.02525 0.81647 0.06223 -0.01800
S 	S 	0.00817 0.69900 0.00018 0.02100
C 	C 	0.03770 0.68318 0.96441 -0.02300
C 	C 	0.06586 0.70229 0.97423 -0.04900
H 	H 	0.10503 0.75551 0.00072 0.05300
H 	H 	0.99050 0.75969 0.05598 0.06100
H 	H 	0.99936 0.82182 0.06292 0.06400
H 	H 	0.08691 0.70025 0.95060 0.05100
C 	C 	0.01393 0.99654 0.21524 -0.04600
C 	C 	0.00138 0.96515 0.21186 -0.08000
C 	C 	0.96795 0.95992 0.19711 0.10900
C 	C 	0.94696 0.98605 0.19202 -0.04100
H 	H 	0.03973 0.00085 0.22533 0.05900
H 	H 	0.92099 0.98183 0.18391 0.07500
Br	Br	0.94983 0.91751 0.18845 -0.28100
C 	C 	0.91923 0.84098 0.33092 -0.06700
C 	C 	0.92546 0.84903 0.38433 -0.11100
C 	C 	0.95782 0.84742 0.40551 0.12500
C 	C 	0.98376 0.84695 0.37234 -0.05500
C 	C 	0.97729 0.84598 0.31810 -0.11600
C 	C 	0.94482 0.84028 0.29735 0.10200
Br	Br	0.93428 0.83288 0.22379 -0.23400
H 	H 	0.89415 0.83893 0.31481 0.04500
H 	H 	0.00880 0.84799 0.38870 0.04500
Br	Br	0.96690 0.84332 0.47848 -0.19600
C 	C 	0.12128 0.00609 0.31614 -0.04800
C 	C 	0.12936 0.00917 0.36996 -0.10300
C 	C 	0.13839 0.98166 0.39542 0.12600
C 	C 	0.13280 0.95142 0.36958 -0.05200
C 	C 	0.12021 0.94836 0.31765 -0.09900
C 	C 	0.11719 0.97593 0.28967 0.11600
Br	Br	0.10851 0.97340 0.21541 -0.22600
H 	H 	0.11713 0.02717 0.29503 0.02500
H 	H 	0.13763 0.93025 0.39022 0.06300
Br	Br	0.16200 0.98463 0.46227 -0.22400
C 	C 	0.04548 0.68938 0.23418 0.00300
C 	C 	0.03845 0.71389 0.20160 -0.05300
C 	C 	0.06452 0.73225 0.18663 0.02200
C 	C 	0.09696 0.72557 0.20353 0.00100
C 	C 	0.10349 0.70362 0.24100 -0.05400
C 	C 	0.07737 0.68558 0.25646 0.02500
S 	S 	0.01922 0.67665 0.27510 0.01500
C 	C 	0.04648 0.66640 0.32141 -0.01800
C 	C 	0.07787 0.67192 0.30517 -0.04500
S 	S 	0.11856 0.75892 0.20152 0.03100
C 	C 	0.08906 0.78264 0.17928 -0.06100
C 	C 	0.06024 0.76411 0.17271 -0.02200
H 	H 	0.01330 0.72054 0.19242 0.05600
H 	H 	0.12744 0.70295 0.26122 0.05000
H 	H 	0.10013 0.66766 0.32842 0.04800
H 	H 	0.03623 0.77483 0.16895 0.05600
