data_crystal

_cell_length_a 33.03509
_cell_length_b 33.53080
_cell_length_c 27.34597
_cell_angle_alpha 87.10846
_cell_angle_beta  89.88502
_cell_angle_gamma 121.63701

_symmetry_space_group_name_	'P 1'
_symmetry_space_group_name_H-M	'P 1'

loop_
_symmetry_equiv_pos_as_xyz
  x,y,z

loop_
_atom_site_label
_atom_site_type_symbol
_atom_site_fract_x
_atom_site_fract_y
_atom_site_fract_z
_atom_site_charge
Zn	Zn	0.35819 0.16760 0.95324 1.23800
Zn	Zn	0.35747 0.21515 0.05831 1.22900
C 	C 	0.49123 0.15107 0.01509 0.31900
Zn	Zn	0.42812 0.18570 0.03826 1.23200
Zn	Zn	0.44305 0.15981 0.92840 1.21600
H 	H 	0.33931 0.13314 0.04655 0.28300
C 	C 	0.46579 0.28486 0.03766 0.32000
O 	O 	0.40225 0.13485 0.87161 -0.39600
O 	O 	0.36625 0.17679 0.87575 -0.29800
O 	O 	0.36089 0.16395 0.02929 -0.78500
O 	O 	0.32532 0.23563 0.00979 -0.35900
O 	O 	0.32635 0.09862 0.95106 -0.35900
O 	O 	0.31473 0.19046 0.94535 -0.35300
O 	O 	0.39206 0.09632 0.97226 -0.32100
O 	O 	0.39019 0.22357 0.12125 -0.34400
H 	H 	0.44485 0.23409 0.94862 0.23600
O 	O 	0.41599 0.17242 0.11515 -0.30000
O 	O 	0.42755 0.20109 0.96201 -0.78200
O 	O 	0.49526 0.16466 0.96849 -0.38900
O 	O 	0.47436 0.25167 0.04941 -0.40200
O 	O 	0.45562 0.14498 0.04308 -0.33000
O 	O 	0.42315 0.27388 0.02436 -0.31600
C 	C 	0.38333 0.15671 0.84987 0.32000
C 	C 	0.32083 0.22916 0.96240 0.32500
C 	C 	0.34557 0.07530 0.96879 0.30700
C 	C 	0.39921 0.19267 0.14158 0.31000
Zn	Zn	0.36053 0.17301 0.45422 1.23500
Zn	Zn	0.36094 0.22171 0.55936 1.21700
C 	C 	0.49619 0.16100 0.51597 0.31900
Zn	Zn	0.43130 0.19249 0.53861 1.23700
Zn	Zn	0.44616 0.16612 0.42895 1.22700
H 	H 	0.34295 0.13964 0.54769 0.25900
C 	C 	0.46950 0.29190 0.53901 0.31900
O 	O 	0.40555 0.14149 0.37219 -0.38500
O 	O 	0.36723 0.18125 0.37653 -0.30700
O 	O 	0.36412 0.17042 0.53016 -0.79100
O 	O 	0.32898 0.24231 0.51069 -0.36800
O 	O 	0.32891 0.10373 0.45277 -0.38200
O 	O 	0.31693 0.19591 0.44693 -0.37500
O 	O 	0.39540 0.10220 0.47263 -0.35400
O 	O 	0.39303 0.22960 0.62279 -0.35300
H 	H 	0.44706 0.24021 0.44890 0.26100
O 	O 	0.41941 0.17896 0.61533 -0.28200
O 	O 	0.43013 0.20723 0.46234 -0.77300
O 	O 	0.49887 0.17135 0.46862 -0.37200
O 	O 	0.47793 0.25844 0.54965 -0.33600
O 	O 	0.45894 0.15217 0.54282 -0.32700
O 	O 	0.42683 0.28127 0.52623 -0.31100
C 	C 	0.38730 0.16402 0.35062 0.31600
C 	C 	0.32347 0.23499 0.46349 0.32800
C 	C 	0.34881 0.08063 0.46933 0.31000
C 	C 	0.40392 0.19983 0.64256 0.31100
Zn	Zn	0.15276 0.77960 0.00843 1.23600
Zn	Zn	0.10532 0.72644 0.90383 1.22400
C 	C 	0.30885 0.80947 0.94868 0.32700
Zn	Zn	0.20778 0.76446 0.92500 1.23500
Zn	Zn	0.24834 0.79254 0.03533 1.22500
H 	H 	0.16934 0.81156 0.91381 0.28900
C 	C 	0.14739 0.66399 0.93226 0.31200
O 	O 	0.23104 0.81523 0.09196 -0.37300
O 	O 	0.15039 0.77139 0.08669 -0.31400
O 	O 	0.16009 0.78170 0.93221 -0.78100
O 	O 	0.05019 0.70509 0.95059 -0.36600
O 	O 	0.19105 0.84909 0.00985 -0.35800
O 	O 	0.08373 0.75241 0.01480 -0.36600
O 	O 	0.26172 0.85485 0.99200 -0.32200
O 	O 	0.13121 0.71828 0.84207 -0.38500
H 	H 	0.17293 0.71740 0.01570 0.27400
O 	O 	0.20980 0.77523 0.84738 -0.30200
O 	O 	0.19024 0.74996 0.00130 -0.78100
O 	O 	0.29740 0.79182 0.99412 -0.36600
O 	O 	0.18929 0.69921 0.91695 -0.37700
O 	O 	0.27747 0.81062 0.92002 -0.33000
O 	O 	0.11241 0.67088 0.94098 -0.33300
C 	C 	0.18853 0.79136 0.11318 0.31700
C 	C 	0.05014 0.71284 0.99745 0.32900
C 	C 	0.23611 0.87427 0.99513 0.31600
C 	C 	0.17180 0.75162 0.82121 0.31000
Zn	Zn	0.15654 0.78432 0.50717 1.23600
Zn	Zn	0.11168 0.73114 0.40181 1.21300
C 	C 	0.31298 0.80987 0.45277 0.32800
Zn	Zn	0.21324 0.76826 0.42641 1.23800
Zn	Zn	0.25097 0.79560 0.53754 1.23500
H 	H 	0.17595 0.81616 0.41246 0.25900
C 	C 	0.15210 0.66810 0.43425 0.31300
O 	O 	0.23186 0.81730 0.59356 -0.38400
O 	O 	0.15149 0.77583 0.58538 -0.31200
O 	O 	0.16588 0.78625 0.43119 -0.78600
O 	O 	0.05521 0.71029 0.44667 -0.37200
O 	O 	0.19566 0.85396 0.50873 -0.37600
O 	O 	0.08724 0.75694 0.51147 -0.37600
O 	O 	0.26666 0.85902 0.49425 -0.36200
O 	O 	0.13892 0.72201 0.34157 -0.37000
H 	H 	0.17560 0.72138 0.51654 0.29900
O 	O 	0.21739 0.77881 0.34875 -0.29500
O 	O 	0.19357 0.75394 0.50217 -0.77400
O 	O 	0.30066 0.79354 0.49854 -0.34900
O 	O 	0.19434 0.70284 0.41921 -0.32900
O 	O 	0.28318 0.81357 0.42380 -0.32400
O 	O 	0.11723 0.67553 0.44109 -0.32200
C 	C 	0.18870 0.79240 0.61313 0.31500
C 	C 	0.05460 0.71710 0.49372 0.32800
C 	C 	0.24126 0.87888 0.49573 0.31300
C 	C 	0.18058 0.75400 0.32140 0.30900
Zn	Zn	0.70937 0.53031 0.10435 1.23300
Zn	Zn	0.78850 0.49948 0.12462 1.22500
C 	C 	0.74089 0.53558 0.91935 0.32700
Zn	Zn	0.76790 0.51882 0.02000 1.23700
Zn	Zn	0.70885 0.57070 0.99967 1.22600
H 	H 	0.71008 0.45391 0.08229 0.27000
C 	C 	0.85849 0.58646 0.05743 0.31700
O 	O 	0.66089 0.57447 0.03862 -0.40100
O 	O 	0.68991 0.58092 0.11529 -0.27200
O 	O 	0.73418 0.48774 0.08355 -0.77500
O 	O 	0.78348 0.52699 0.18680 -0.37200
O 	O 	0.64417 0.48434 0.08374 -0.38400
O 	O 	0.71386 0.52686 0.17819 -0.32500
O 	O 	0.66098 0.49462 0.00106 -0.34300
O 	O 	0.82568 0.48281 0.08184 -0.36300
H 	H 	0.77918 0.59951 0.05526 0.29000
O 	O 	0.78407 0.46589 0.01110 -0.29200
O 	O 	0.75284 0.56820 0.04694 -0.76700
O 	O 	0.73543 0.56944 0.93373 -0.35700
O 	O 	0.83651 0.56520 0.01831 -0.34800
O 	O 	0.74075 0.50477 0.95183 -0.30400
O 	O 	0.83643 0.57282 0.10050 -0.35000
C 	C 	0.67100 0.59413 0.08078 0.30500
C 	C 	0.74694 0.52731 0.20615 0.32200
C 	C 	0.63436 0.46841 0.03945 0.30300
C 	C 	0.80734 0.45644 0.04422 0.30800
Zn	Zn	0.71604 0.53847 0.60484 1.23300
Zn	Zn	0.79252 0.50293 0.62384 1.21200
C 	C 	0.74386 0.54006 0.41965 0.32300
Zn	Zn	0.77140 0.52306 0.52000 1.23600
Zn	Zn	0.71449 0.57699 0.50000 1.22300
H 	H 	0.71335 0.45986 0.58328 0.25000
C 	C 	0.86298 0.58998 0.55684 0.31600
O 	O 	0.66691 0.58182 0.53807 -0.40000
O 	O 	0.69750 0.59029 0.61408 -0.29300
O 	O 	0.73834 0.49346 0.58422 -0.77700
O 	O 	0.78696 0.52744 0.68773 -0.38600
O 	O 	0.64994 0.49222 0.58601 -0.36800
O 	O 	0.72571 0.54107 0.67832 -0.32400
O 	O 	0.66565 0.50086 0.50302 -0.33700
O 	O 	0.82907 0.48612 0.58049 -0.39200
H 	H 	0.78561 0.60548 0.55406 0.28300
O 	O 	0.78556 0.46844 0.51110 -0.26000
O 	O 	0.75858 0.57423 0.54661 -0.77200
O 	O 	0.74148 0.57548 0.43470 -0.37900
O 	O 	0.84042 0.56830 0.51803 -0.34700
O 	O 	0.74283 0.50876 0.45213 -0.28100
O 	O 	0.84154 0.57648 0.60035 -0.35200
C 	C 	0.67717 0.60209 0.57981 0.31000
C 	C 	0.75108 0.52927 0.70651 0.32300
C 	C 	0.63928 0.47545 0.54199 0.29800
C 	C 	0.81062 0.45999 0.54279 0.31100
Zn	Zn	0.54019 0.79101 0.95020 1.23600
Zn	Zn	0.52139 0.81731 0.05867 1.22000
C 	C 	0.63269 0.73316 0.03154 0.32300
Zn	Zn	0.60326 0.80197 0.03888 1.23700
Zn	Zn	0.60249 0.75252 0.93379 1.20900
H 	H 	0.51720 0.74123 0.04022 0.28400
C 	C 	0.62382 0.89692 0.02272 0.30900
O 	O 	0.57338 0.74730 0.86886 -0.38000
O 	O 	0.55639 0.80506 0.87428 -0.31300
O 	O 	0.53547 0.77399 0.02656 -0.78200
O 	O 	0.47376 0.81847 0.01422 -0.37300
O 	O 	0.49019 0.72658 0.93780 -0.31600
O 	O 	0.51865 0.83558 0.94381 -0.36500
O 	O 	0.53354 0.69588 0.96555 -0.32800
O 	O 	0.55971 0.83885 0.11802 -0.37500
H 	H 	0.62891 0.83733 0.94634 0.20600
O 	O 	0.59076 0.79218 0.11595 -0.29200
O 	O 	0.60487 0.80669 0.96261 -0.78900
O 	O 	0.63075 0.72896 0.98367 -0.38800
O 	O 	0.63952 0.87083 0.04176 -0.34300
O 	O 	0.64074 0.77214 0.04999 -0.34700
O 	O 	0.57788 0.87933 0.01781 -0.37400
C 	C 	0.56703 0.77987 0.84793 0.31800
C 	C 	0.47956 0.82719 0.96638 0.32800
C 	C 	0.49241 0.69048 0.95402 0.31400
C 	C 	0.57614 0.81503 0.14078 0.32700
Zn	Zn	0.54419 0.80068 0.45297 1.23000
Zn	Zn	0.53542 0.83147 0.56299 1.22500
C 	C 	0.63646 0.73911 0.52712 0.32600
Zn	Zn	0.61369 0.81240 0.53563 1.23300
Zn	Zn	0.59980 0.75584 0.43242 1.20900
H 	H 	0.52638 0.75344 0.54411 0.26800
C 	C 	0.63689 0.90866 0.52009 0.31100
O 	O 	0.56531 0.74913 0.37087 -0.39900
O 	O 	0.55399 0.81069 0.37602 -0.32000
O 	O 	0.54496 0.78589 0.52932 -0.77900
O 	O 	0.48724 0.83499 0.52156 -0.34600
O 	O 	0.48986 0.73681 0.44463 -0.34300
O 	O 	0.52790 0.84919 0.44856 -0.37000
O 	O 	0.53237 0.70476 0.47078 -0.34400
O 	O 	0.57664 0.85099 0.62051 -0.34500
H 	H 	0.63258 0.84273 0.44114 0.20800
O 	O 	0.60824 0.80513 0.61336 -0.31900
O 	O 	0.60872 0.81344 0.45973 -0.79000
O 	O 	0.62818 0.73064 0.48038 -0.38500
O 	O 	0.65284 0.88167 0.53555 -0.35700
O 	O 	0.64981 0.78075 0.54248 -0.37500
O 	O 	0.59095 0.89249 0.51996 -0.33300
C 	C 	0.56045 0.78257 0.34973 0.31600
C 	C 	0.49211 0.84539 0.47394 0.33800
C 	C 	0.49129 0.70016 0.46069 0.31600
C 	C 	0.59214 0.82525 0.64064 0.32000
Zn	Zn	0.75542 0.19171 0.01208 1.23500
Zn	Zn	0.70841 0.16384 0.90543 1.23100
C 	C 	0.91282 0.24613 0.92933 0.33900
Zn	Zn	0.80756 0.18042 0.92429 1.23500
Zn	Zn	0.86002 0.23261 0.02609 1.21600
H 	H 	0.78409 0.24165 0.92270 0.27800
C 	C 	0.72677 0.08527 0.94185 0.31200
O 	O 	0.83698 0.23702 0.09129 -0.40000
O 	O 	0.75800 0.17970 0.08789 -0.29700
O 	O 	0.76905 0.20871 0.93576 -0.77600
O 	O 	0.65958 0.16295 0.94983 -0.36600
O 	O 	0.77154 0.25519 0.02403 -0.35400
O 	O 	0.68640 0.14608 0.02013 -0.35900
O 	O 	0.84825 0.28774 0.99750 -0.31900
O 	O 	0.72408 0.14086 0.84767 -0.33300
H 	H 	0.79691 0.14726 0.01689 0.22700
O 	O 	0.80488 0.18780 0.84740 -0.30500
O 	O 	0.80441 0.17728 0.99995 -0.79100
O 	O 	0.91141 0.25997 0.97336 -0.37400
O 	O 	0.77039 0.11131 0.92306 -0.36800
O 	O 	0.87669 0.20760 0.91280 -0.36400
O 	O 	0.69998 0.10312 0.94789 -0.36200
C 	C 	0.79653 0.20410 0.11304 0.31900
C 	C 	0.65511 0.15259 0.99738 0.32600
C 	C 	0.81321 0.29235 0.01246 0.31000
C 	C 	0.76519 0.16570 0.82378 0.32300
Zn	Zn	0.75147 0.18932 0.51352 1.22900
Zn	Zn	0.70994 0.17534 0.40362 1.22200
C 	C 	0.91293 0.25161 0.43562 0.33000
Zn	Zn	0.80801 0.18931 0.42276 1.23400
Zn	Zn	0.85505 0.22848 0.53076 1.22000
H 	H 	0.78449 0.24992 0.43122 0.24200
C 	C 	0.72725 0.09369 0.43118 0.31100
O 	O 	0.82858 0.22280 0.59788 -0.34900
O 	O 	0.75008 0.16713 0.58702 -0.32300
O 	O 	0.76887 0.21579 0.43943 -0.77900
O 	O 	0.65913 0.16866 0.44930 -0.38300
O 	O 	0.76478 0.24975 0.53510 -0.37600
O 	O 	0.68296 0.14292 0.51564 -0.36200
O 	O 	0.84266 0.28535 0.51209 -0.36000
O 	O 	0.72837 0.16026 0.34188 -0.37100
H 	H 	0.79409 0.14590 0.51075 0.22500
O 	O 	0.80893 0.20603 0.34714 -0.29100
O 	O 	0.80150 0.17725 0.49797 -0.79700
O 	O 	0.90703 0.26371 0.47908 -0.38200
O 	O 	0.77082 0.12133 0.41279 -0.36300
O 	O 	0.87753 0.21686 0.41328 -0.35200
O 	O 	0.69882 0.10975 0.43675 -0.34500
C 	C 	0.78685 0.18783 0.61532 0.33100
C 	C 	0.65279 0.15247 0.49531 0.32800
C 	C 	0.80697 0.28774 0.52942 0.32300
C 	C 	0.77076 0.18699 0.32095 0.31900
Zn	Zn	0.21101 0.46154 0.93722 1.22800
Zn	Zn	0.17839 0.46161 0.82427 1.21900
C 	C 	0.26682 0.35480 0.89641 0.31500
Zn	Zn	0.20824 0.39317 0.86002 1.23700
Zn	Zn	0.26113 0.41215 0.97003 1.22600
H 	H 	0.26099 0.48170 0.84908 0.25700
C 	C 	0.10708 0.36017 0.86735 0.30000
O 	O 	0.26349 0.44601 0.02808 -0.39400
O 	O 	0.19929 0.45342 0.01491 -0.31600
O 	O 	0.22836 0.45995 0.86255 -0.78300
O 	O 	0.16989 0.50808 0.85819 -0.36800
O 	O 	0.27418 0.51806 0.94566 -0.39600
O 	O 	0.15810 0.47315 0.93530 -0.37300
O 	O 	0.31143 0.47881 0.93096 -0.34000
O 	O 	0.16150 0.41868 0.77087 -0.37400
H 	H 	0.17353 0.37563 0.95387 0.28600
O 	O 	0.21739 0.39915 0.78203 -0.31800
O 	O 	0.20312 0.39936 0.93576 -0.77300
O 	O 	0.29042 0.38810 0.92669 -0.37800
O 	O 	0.13853 0.34915 0.85530 -0.30900
O 	O 	0.24553 0.36161 0.85892 -0.31800
O 	O 	0.12009 0.40456 0.86923 -0.35100
C 	C 	0.22610 0.44593 0.04490 0.31200
C 	C 	0.15698 0.50406 0.90456 0.32800
C 	C 	0.31337 0.51833 0.93696 0.31900
C 	C 	0.19199 0.40908 0.75274 0.32100
Zn	Zn	0.21437 0.46490 0.43873 1.22900
Zn	Zn	0.18024 0.46679 0.32708 1.23300
C 	C 	0.27076 0.36114 0.39201 0.30200
Zn	Zn	0.20966 0.39727 0.35946 1.23600
Zn	Zn	0.26707 0.41668 0.46738 1.22900
H 	H 	0.26395 0.48680 0.35006 0.25600
C 	C 	0.10927 0.36588 0.37408 0.29800
O 	O 	0.26781 0.44665 0.52822 -0.34900
O 	O 	0.20328 0.45424 0.51625 -0.31800
O 	O 	0.23119 0.46467 0.36320 -0.76700
O 	O 	0.17386 0.51341 0.36281 -0.35000
O 	O 	0.27612 0.52240 0.44893 -0.38600
O 	O 	0.16115 0.47619 0.43881 -0.36600
O 	O 	0.31507 0.48580 0.43202 -0.31900
O 	O 	0.16110 0.42409 0.27320 -0.37500
H 	H 	0.18033 0.37877 0.45433 0.27900
O 	O 	0.21554 0.40230 0.28105 -0.31300
O 	O 	0.20831 0.40382 0.43537 -0.78200
O 	O 	0.29632 0.39701 0.41873 -0.36000
O 	O 	0.13920 0.35403 0.35857 -0.33500
O 	O 	0.24539 0.36413 0.35635 -0.32100
O 	O 	0.12212 0.41035 0.37313 -0.34400
C 	C 	0.23103 0.44751 0.54569 0.30900
C 	C 	0.15996 0.50770 0.40903 0.32500
C 	C 	0.31600 0.52302 0.44588 0.32000
C 	C 	0.19106 0.41470 0.25331 0.31200
C 	C 	0.24531 0.45695 0.68241 0.06200
C 	C 	0.20288 0.41660 0.69984 0.01100
C 	C 	0.16917 0.38682 0.66648 -0.06200
C 	C 	0.17780 0.39939 0.61603 0.05600
C 	C 	0.22023 0.43976 0.59862 0.02400
C 	C 	0.25352 0.47001 0.63206 -0.06800
C 	C 	0.29814 0.51573 0.61426 0.78000
H 	H 	0.27125 0.47897 0.70838 0.10300
H 	H 	0.15205 0.37720 0.59002 0.12300
C 	C 	0.12360 0.34226 0.68463 0.77800
F 	F 	0.31821 0.54578 0.65185 -0.37200
F 	F 	0.28762 0.53868 0.57771 -0.39600
F 	F 	0.33128 0.50643 0.59620 -0.37400
F 	F 	0.09315 0.35375 0.70548 -0.38600
F 	F 	0.13357 0.31730 0.71925 -0.37800
F 	F 	0.10062 0.31328 0.64686 -0.37300
C 	C 	0.24244 0.47487 0.12823 0.07000
C 	C 	0.21489 0.43830 0.09779 0.01600
C 	C 	0.17979 0.39349 0.11844 -0.08200
C 	C 	0.17291 0.38633 0.16968 0.07000
C 	C 	0.20076 0.42280 0.20013 0.01600
C 	C 	0.23599 0.46756 0.17946 -0.07700
C 	C 	0.26650 0.50750 0.21203 0.78000
H 	H 	0.26933 0.50887 0.11183 0.11500
H 	H 	0.14579 0.35243 0.18606 0.11000
C 	C 	0.14997 0.35332 0.08586 0.78300
F 	F 	0.29993 0.54777 0.18510 -0.37600
F 	F 	0.29048 0.49449 0.24408 -0.42900
F 	F 	0.23797 0.51805 0.23855 -0.46200
F 	F 	0.17928 0.34472 0.05799 -0.44100
F 	F 	0.12409 0.36496 0.05503 -0.41300
F 	F 	0.11831 0.31229 0.11286 -0.39000
C 	C 	0.02397 0.32881 0.35530 0.07400
C 	C 	0.05872 0.32925 0.38513 0.03200
C 	C 	0.04442 0.29902 0.42832 -0.07200
C 	C 	0.08059 0.30018 0.46311 0.77900
H 	H 	0.03509 0.35067 0.32150 0.11400
F 	F 	0.05978 0.26288 0.49791 -0.37800
F 	F 	0.10109 0.34132 0.48723 -0.44700
F 	F 	0.11501 0.29725 0.43778 -0.40100
C 	C 	0.02235 0.33278 0.85324 0.07600
C 	C 	0.05581 0.32325 0.87315 0.04200
C 	C 	0.03956 0.28147 0.90326 -0.07500
C 	C 	0.07210 0.26348 0.91588 0.79200
H 	H 	0.03449 0.36332 0.82822 0.13300
F 	F 	0.04824 0.22067 0.94252 -0.36900
F 	F 	0.10875 0.29499 0.94366 -0.40400
F 	F 	0.09023 0.25731 0.87327 -0.35200
C 	C 	0.79483 0.15367 0.74671 0.08600
C 	C 	0.76708 0.16775 0.77036 0.03500
C 	C 	0.74430 0.18681 0.74269 -0.06000
C 	C 	0.74862 0.18976 0.69152 0.08400
C 	C 	0.77870 0.17847 0.66816 0.03700
C 	C 	0.80036 0.15820 0.69550 -0.06400
C 	C 	0.83030 0.14253 0.67028 0.78200
H 	H 	0.81255 0.13974 0.76846 0.12900
H 	H 	0.72949 0.20197 0.66963 0.14400
C 	C 	0.71518 0.20371 0.76751 0.77800
F 	F 	0.84062 0.11580 0.70206 -0.37000
F 	F 	0.87267 0.18149 0.65275 -0.41100
F 	F 	0.80622 0.11551 0.63162 -0.40200
F 	F 	0.74057 0.23286 0.80433 -0.42900
F 	F 	0.67336 0.16552 0.78728 -0.41400
F 	F 	0.70365 0.22880 0.73474 -0.35800
C 	C 	0.79889 0.23840 0.19104 0.08100
C 	C 	0.79236 0.20001 0.16633 0.01700
C 	C 	0.77884 0.15714 0.19257 -0.06800
C 	C 	0.76955 0.15295 0.24317 0.07000
C 	C 	0.77593 0.19130 0.26780 0.02900
C 	C 	0.78947 0.23413 0.24160 -0.06900
C 	C 	0.79441 0.27538 0.26764 0.78100
H 	H 	0.81018 0.27125 0.17045 0.10900
H 	H 	0.75794 0.12001 0.26374 0.13700
C 	C 	0.77244 0.11532 0.16648 0.78400
F 	F 	0.79959 0.31069 0.23480 -0.36500
F 	F 	0.83394 0.29373 0.29636 -0.36900
F 	F 	0.75437 0.26092 0.29706 -0.42700
F 	F 	0.81005 0.12920 0.13359 -0.42700
F 	F 	0.73046 0.09535 0.14156 -0.38700
F 	F 	0.77056 0.08146 0.19922 -0.35900
C 	C 	0.44831 0.61367 0.45464 0.07900
C 	C 	0.44697 0.65331 0.46602 0.03700
C 	C 	0.40279 0.64774 0.47976 -0.06400
C 	C 	0.36060 0.60564 0.47073 0.08400
C 	C 	0.36168 0.56616 0.45766 0.03200
C 	C 	0.40631 0.56909 0.45587 -0.06400
C 	C 	0.40998 0.52572 0.45971 0.78500
H 	H 	0.48212 0.61739 0.44553 0.12000
H 	H 	0.32680 0.60336 0.47495 0.12800
C 	C 	0.39991 0.68571 0.50453 0.79200
F 	F 	0.45478 0.53686 0.47397 -0.37500
F 	F 	0.40207 0.50629 0.41468 -0.40000
F 	F 	0.37751 0.49302 0.49453 -0.40700
F 	F 	0.40052 0.71707 0.46942 -0.41500
F 	F 	0.43734 0.70927 0.53535 -0.44900
F 	F 	0.35822 0.66649 0.53265 -0.36600
C 	C 	0.67790 0.96322 0.44782 0.06800
C 	C 	0.67030 0.95629 0.49883 0.02000
C 	C 	0.68786 0.99539 0.52789 -0.06500
C 	C 	0.70797 0.04048 0.50488 0.07300
C 	C 	0.71300 0.04723 0.45372 0.01400
C 	C 	0.69943 0.00860 0.42477 -0.06900
C 	C 	0.70590 0.01547 0.36935 0.78100
H 	H 	0.66481 0.93296 0.42601 0.07600
H 	H 	0.71810 0.07029 0.52663 0.08400
C 	C 	0.68281 0.98878 0.58327 0.78600
F 	F 	0.69149 0.97374 0.34779 -0.39400
F 	F 	0.75337 0.04645 0.35656 -0.39300
F 	F 	0.67933 0.03340 0.35078 -0.39600
F 	F 	0.69954 0.96055 0.59973 -0.35800
F 	F 	0.63542 0.96784 0.59752 -0.36400
F 	F 	0.70849 0.03108 0.60524 -0.36700
C 	C 	0.36892 0.58602 0.98392 0.07700
C 	C 	0.35990 0.56199 0.94101 0.01100
C 	C 	0.39590 0.57886 0.90358 -0.06000
C 	C 	0.44118 0.61809 0.91151 0.06800
C 	C 	0.44957 0.64315 0.95359 0.04800
C 	C 	0.41354 0.62638 0.99087 -0.06600
C 	C 	0.42253 0.65135 0.03799 0.77700
H 	H 	0.34104 0.57288 0.01213 0.10200
H 	H 	0.46940 0.63070 0.88379 0.13600
C 	C 	0.38574 0.55651 0.85460 0.78200
F 	F 	0.38520 0.62645 0.07196 -0.38600
F 	F 	0.42828 0.69491 0.02815 -0.43600
F 	F 	0.46298 0.65659 0.05882 -0.39900
F 	F 	0.34439 0.55148 0.83641 -0.42900
F 	F 	0.38091 0.51300 0.86029 -0.40600
F 	F 	0.42204 0.58370 0.82018 -0.35800
C 	C 	0.71438 0.02727 0.00868 0.05600
C 	C 	0.70881 0.03661 0.95947 0.01600
C 	C 	0.68127 0.99918 0.92924 -0.08000
C 	C 	0.65510 0.95316 0.95046 0.06500
C 	C 	0.65780 0.94403 0.00058 0.00200
C 	C 	0.68930 0.98106 0.02971 -0.06700
C 	C 	0.69675 0.97130 0.08272 0.78200
H 	H 	0.73693 0.05629 0.03096 0.09500
H 	H 	0.63133 0.92443 0.92840 0.07700
C 	C 	0.67741 0.00855 0.87506 0.78200
F 	F 	0.72699 0.01221 0.10543 -0.35800
F 	F 	0.71667 0.94388 0.08447 -0.36400
F 	F 	0.65373 0.94807 0.10882 -0.38200
F 	F 	0.72222 0.03838 0.85378 -0.39600
F 	F 	0.65060 0.02908 0.86935 -0.40400
F 	F 	0.65600 0.96758 0.85041 -0.39300
C 	C 	0.61103 0.83440 0.77697 0.06400
C 	C 	0.57412 0.78995 0.79480 0.01400
C 	C 	0.54258 0.75716 0.76196 -0.06100
C 	C 	0.54956 0.76951 0.71143 0.05900
C 	C 	0.58618 0.81417 0.69370 0.01700
C 	C 	0.61786 0.84675 0.72650 -0.06800
C 	C 	0.65822 0.89494 0.70785 0.78300
H 	H 	0.63425 0.85942 0.80271 0.10300
H 	H 	0.52651 0.74443 0.68563 0.11000
C 	C 	0.50257 0.70859 0.78050 0.78000
F 	F 	0.68788 0.91983 0.74495 -0.37000
F 	F 	0.63960 0.92036 0.68778 -0.34800
F 	F 	0.68545 0.89052 0.67254 -0.37300
F 	F 	0.47600 0.71197 0.81741 -0.37900
F 	F 	0.52161 0.68281 0.79841 -0.39500
F 	F 	0.47202 0.68449 0.74365 -0.36400
C 	C 	0.53009 0.79484 0.21889 0.07000
C 	C 	0.57367 0.81012 0.19454 0.02300
C 	C 	0.61322 0.81721 0.22159 -0.06300
C 	C 	0.60687 0.80451 0.27195 0.06800
C 	C 	0.56332 0.78915 0.29623 0.01400
C 	C 	0.52404 0.78309 0.26949 -0.06800
C 	C 	0.47625 0.76595 0.29496 0.78500
H 	H 	0.50052 0.79101 0.19800 0.09600
H 	H 	0.63627 0.80780 0.29275 0.08700
C 	C 	0.66195 0.83741 0.19699 0.78000
F 	F 	0.44025 0.75113 0.26174 -0.37900
F 	F 	0.47864 0.80210 0.31956 -0.40200
F 	F 	0.46427 0.72844 0.32798 -0.40000
F 	F 	0.67150 0.87349 0.16299 -0.36100
F 	F 	0.66355 0.80251 0.17385 -0.39000
F 	F 	0.69750 0.85551 0.23085 -0.38100
C 	C 	0.78683 0.38054 0.57553 0.07100
C 	C 	0.81259 0.41740 0.54017 0.01900
C 	C 	0.84208 0.41420 0.50499 -0.06000
C 	C 	0.83959 0.37121 0.50160 0.06400
C 	C 	0.81294 0.33390 0.53653 0.01600
C 	C 	0.79000 0.34041 0.57649 -0.07300
H 	H 	0.85784 0.36651 0.47154 0.12000
C 	C 	0.87555 0.45605 0.47082 0.78100
F 	F 	0.72495 0.26838 0.61037 -0.40300
F 	F 	0.90142 0.49568 0.49700 -0.39000
F 	F 	0.84947 0.46391 0.43662 -0.34700
F 	F 	0.90754 0.44864 0.44631 -0.36300
C 	C 	0.62127 0.62927 0.58893 0.06900
C 	C 	0.66846 0.64022 0.58657 0.01900
C 	C 	0.70579 0.68753 0.57767 -0.09100
C 	C 	0.69468 0.72112 0.56169 0.07100
C 	C 	0.64717 0.70845 0.55740 0.01000
C 	C 	0.61032 0.66356 0.57583 -0.08000
C 	C 	0.55891 0.65060 0.57716 0.78400
H 	H 	0.59284 0.59323 0.59734 0.11700
H 	H 	0.72284 0.75628 0.54952 0.10700
C 	C 	0.75737 0.70134 0.58090 0.78500
F 	F 	0.53217 0.61394 0.61155 -0.37400
F 	F 	0.54003 0.63690 0.53165 -0.41400
F 	F 	0.55551 0.68829 0.58957 -0.44000
F 	F 	0.76948 0.68424 0.54212 -0.44700
F 	F 	0.76401 0.68305 0.62448 -0.39500
F 	F 	0.78775 0.74961 0.57938 -0.38300
C 	C 	0.80531 0.34322 0.06852 0.07900
C 	C 	0.82193 0.33880 0.02317 0.02300
C 	C 	0.83887 0.37583 0.98639 -0.07000
C 	C 	0.83497 0.41482 0.99473 0.07400
C 	C 	0.81402 0.41686 0.03843 0.02500
C 	C 	0.79820 0.38027 0.07555 -0.06800
C 	C 	0.77356 0.38040 0.12256 0.78000
H 	H 	0.79506 0.31593 0.09736 0.11200
F 	F 	0.75179 0.33719 0.14843 -0.36500
F 	F 	0.73869 0.39036 0.11219 -0.45400
F 	F 	0.80662 0.41371 0.15217 -0.42500
C 	C 	0.61717 0.62330 0.09283 0.07300
C 	C 	0.66381 0.63310 0.08785 0.02500
C 	C 	0.70164 0.67997 0.07772 -0.08500
C 	C 	0.69104 0.71423 0.06317 0.07400
C 	C 	0.64372 0.70262 0.06144 0.02200
C 	C 	0.60694 0.65834 0.08125 -0.08300
C 	C 	0.55613 0.64679 0.08548 0.78700
H 	H 	0.58846 0.58759 0.10224 0.11200
H 	H 	0.71928 0.74900 0.04997 0.11200
C 	C 	0.75295 0.69250 0.07776 0.78400
F 	F 	0.52996 0.61011 0.12003 -0.38100
F 	F 	0.53522 0.63391 0.04066 -0.41100
F 	F 	0.55488 0.68516 0.09972 -0.41600
F 	F 	0.76240 0.67513 0.03734 -0.45100
F 	F 	0.76100 0.67343 0.11991 -0.37200
F 	F 	0.78430 0.74061 0.07625 -0.37300
C 	C 	0.70180 0.50600 0.83952 0.06600
C 	C 	0.74390 0.53034 0.86556 0.03500
C 	C 	0.78829 0.55427 0.83944 -0.07700
C 	C 	0.78951 0.55521 0.78756 0.06700
C 	C 	0.74747 0.53014 0.76138 0.02300
C 	C 	0.70316 0.50362 0.78792 -0.07200
C 	C 	0.65715 0.47388 0.76165 0.78200
H 	H 	0.66789 0.48940 0.85937 0.13100
H 	H 	0.82326 0.57546 0.76742 0.11300
C 	C 	0.83433 0.57999 0.86668 0.78000
F 	F 	0.62035 0.44332 0.79421 -0.37600
F 	F 	0.66257 0.44719 0.72828 -0.41500
F 	F 	0.64447 0.50270 0.73737 -0.39900
F 	F 	0.83552 0.54999 0.90247 -0.41500
F 	F 	0.83723 0.61770 0.88849 -0.39300
F 	F 	0.87384 0.59664 0.83569 -0.39700
C 	C 	0.76190 0.50721 0.29141 0.06600
C 	C 	0.74397 0.52930 0.26106 0.02600
C 	C 	0.72577 0.55448 0.28331 -0.07100
C 	C 	0.72069 0.55176 0.33502 0.06700
C 	C 	0.74201 0.53299 0.36526 0.04000
C 	C 	0.76489 0.51223 0.34271 -0.07000
C 	C 	0.79263 0.49559 0.37236 0.78800
H 	H 	0.77479 0.48708 0.27484 0.11400
H 	H 	0.70179 0.56620 0.35184 0.10600
C 	C 	0.71273 0.58511 0.25293 0.78100
F 	F 	0.82003 0.48614 0.34234 -0.36500
F 	F 	0.76136 0.45486 0.39990 -0.36300
F 	F 	0.82318 0.52980 0.40287 -0.39900
F 	F 	0.66914 0.55725 0.23225 -0.39700
F 	F 	0.74705 0.61134 0.21644 -0.38600
F 	F 	0.70951 0.61634 0.28152 -0.39400
C 	C 	0.39732 0.87252 0.45574 0.07500
C 	C 	0.36270 0.83035 0.43648 0.02100
C 	C 	0.37692 0.80259 0.41348 -0.05400
C 	C 	0.42328 0.81199 0.42015 0.07800
C 	C 	0.45487 0.84886 0.44844 0.02700
C 	C 	0.44408 0.88272 0.46071 -0.07700
C 	C 	0.48096 0.92781 0.48260 0.78900
H 	H 	0.38685 0.89521 0.47082 0.09800
H 	H 	0.43336 0.78831 0.40714 0.14300
C 	C 	0.34143 0.76000 0.38684 0.78100
F 	F 	0.47086 0.96258 0.47308 -0.37800
F 	F 	0.52582 0.94357 0.46274 -0.38100
F 	F 	0.48105 0.92016 0.53274 -0.38500
F 	F 	0.31336 0.77046 0.35815 -0.39400
F 	F 	0.31272 0.72355 0.42061 -0.37600
F 	F 	0.36426 0.74551 0.35647 -0.35700
C 	C 	0.11173 0.58673 0.40772 0.08100
C 	C 	0.14282 0.62001 0.43966 0.04700
C 	C 	0.16946 0.60878 0.47183 -0.06600
C 	C 	0.17196 0.56895 0.46415 0.07600
C 	C 	0.14514 0.53858 0.42794 0.02000
C 	C 	0.11081 0.54466 0.40355 -0.05800
C 	C 	0.07521 0.50796 0.37079 0.78200
H 	H 	0.08981 0.59449 0.38454 0.13300
H 	H 	0.19662 0.56292 0.48444 0.10700
C 	C 	0.19288 0.63756 0.51556 0.78100
F 	F 	0.03443 0.50994 0.36828 -0.35500
F 	F 	0.06204 0.46327 0.38875 -0.39700
F 	F 	0.09508 0.51593 0.32409 -0.38600
F 	F 	0.15996 0.64238 0.54162 -0.37800
F 	F 	0.23074 0.68140 0.50009 -0.41200
F 	F 	0.20971 0.61617 0.54694 -0.36600
C 	C 	0.00929 0.68809 0.52162 0.02300
C 	C 	0.99465 0.64212 0.54006 -0.08100
H 	H 	0.98952 0.73957 0.51074 0.10800
C 	C 	0.02883 0.62478 0.54065 0.78700
F 	F 	0.07372 0.65971 0.55342 -0.40800
F 	F 	0.03149 0.61075 0.49470 -0.39500
F 	F 	0.01354 0.58700 0.57432 -0.37300
C 	C 	0.43959 0.87122 0.95028 0.07200
C 	C 	0.44468 0.83362 0.93938 0.01700
C 	C 	0.40883 0.79672 0.91299 -0.07800
C 	C 	0.36446 0.79266 0.90893 0.07200
C 	C 	0.35662 0.82557 0.92917 0.02000
C 	C 	0.39588 0.86812 0.94363 -0.07500
C 	C 	0.39008 0.90815 0.95700 0.78200
H 	H 	0.46815 0.90093 0.96779 0.10700
H 	H 	0.33467 0.76132 0.89497 0.10200
C 	C 	0.41546 0.75870 0.89448 0.78200
F 	F 	0.43290 0.95054 0.95087 -0.36700
F 	F 	0.37447 0.90132 0.00539 -0.40900
F 	F 	0.35748 0.91068 0.92739 -0.38300
F 	F 	0.40805 0.72698 0.93291 -0.40800
F 	F 	0.46074 0.77794 0.87430 -0.41400
F 	F 	0.38355 0.73492 0.85849 -0.38700
C 	C 	0.10886 0.58371 0.90279 0.07000
C 	C 	0.13868 0.61605 0.93622 0.02900
C 	C 	0.16486 0.60432 0.96847 -0.07600
C 	C 	0.16830 0.56519 0.95976 0.07100
C 	C 	0.14258 0.53570 0.92246 0.01300
C 	C 	0.10867 0.54210 0.89756 -0.06800
C 	C 	0.07385 0.50601 0.86372 0.78200
H 	H 	0.08729 0.59182 0.87948 0.10600
H 	H 	0.19260 0.55888 0.98037 0.09500
C 	C 	0.18753 0.63231 0.01287 0.77800
F 	F 	0.03319 0.50812 0.86031 -0.36900
F 	F 	0.06021 0.46104 0.88110 -0.39600
F 	F 	0.09480 0.51473 0.81747 -0.40200
F 	F 	0.15436 0.63706 0.03860 -0.41000
F 	F 	0.22580 0.67621 0.99825 -0.45400
F 	F 	0.20358 0.61022 0.04430 -0.39400
C 	C 	0.00476 0.68573 0.02525 0.02900
H 	H 	0.98313 0.73425 0.00380 0.11600
C 	C 	0.02702 0.62741 0.05790 0.78800
F 	F 	0.06929 0.66457 0.07353 -0.42900
F 	F 	0.03564 0.61292 0.01475 -0.40800
C 	C 	0.18149 0.73333 0.73717 0.06900
C 	C 	0.17493 0.76167 0.76803 0.01800
C 	C 	0.17028 0.79875 0.74787 -0.07800
C 	C 	0.17494 0.80828 0.69684 0.07100
C 	C 	0.18207 0.78030 0.66602 0.01500
C 	C 	0.18423 0.74170 0.68603 -0.07900
C 	C 	0.18912 0.70937 0.65284 0.78200
H 	H 	0.18442 0.70475 0.75315 0.10800
H 	H 	0.17346 0.83774 0.68095 0.11100
C 	C 	0.16233 0.82927 0.78085 0.78300
F 	F 	0.18722 0.67198 0.67907 -0.37600
F 	F 	0.23216 0.73409 0.62689 -0.45100
F 	F 	0.15250 0.69143 0.62033 -0.38400
F 	F 	0.20218 0.85474 0.80810 -0.37500
F 	F 	0.12334 0.80159 0.81215 -0.44900
F 	F 	0.15412 0.86045 0.75426 -0.37700
C 	C 	0.20112 0.80929 0.24906 0.05800
C 	C 	0.18544 0.76360 0.26792 0.02200
C 	C 	0.17107 0.72708 0.23563 -0.06700
C 	C 	0.16823 0.73626 0.18545 0.05900
C 	C 	0.18391 0.78191 0.16658 0.01600
C 	C 	0.19951 0.81873 0.19865 -0.06800
C 	C 	0.21589 0.86834 0.17914 0.78000
H 	H 	0.21350 0.83726 0.27399 0.12000
H 	H 	0.15536 0.70816 0.16060 0.12000
C 	C 	0.15813 0.67820 0.25438 0.78100
F 	F 	0.21810 0.89593 0.21629 -0.36900
F 	F 	0.18465 0.86780 0.14515 -0.39900
F 	F 	0.26067 0.88867 0.15718 -0.38500
F 	F 	0.11218 0.65394 0.27402 -0.39100
F 	F 	0.18902 0.68062 0.28991 -0.38800
F 	F 	0.16073 0.65323 0.21696 -0.37200
C 	C 	0.54943 0.35178 0.50475 0.08000
C 	C 	0.50978 0.34107 0.53411 0.03800
C 	C 	0.51126 0.37596 0.56257 -0.05700
C 	C 	0.55336 0.42048 0.56218 0.06800
C 	C 	0.59438 0.43001 0.53595 0.02700
C 	C 	0.59247 0.39524 0.50660 -0.07500
C 	C 	0.63541 0.40441 0.47618 0.79500
H 	H 	0.54705 0.32544 0.48151 0.11900
H 	H 	0.55467 0.44771 0.58309 0.12100
C 	C 	0.46835 0.36580 0.59371 0.78000
F 	F 	0.62843 0.36370 0.45753 -0.37400
F 	F 	0.67517 0.42218 0.50445 -0.45300
F 	F 	0.64358 0.43588 0.43716 -0.40700
F 	F 	0.45512 0.32782 0.62637 -0.39300
F 	F 	0.43084 0.35608 0.56393 -0.39500
F 	F 	0.47785 0.40355 0.62055 -0.37700
C 	C 	0.52895 0.11113 0.53587 0.06900
C 	C 	0.53338 0.15498 0.53767 0.02900
C 	C 	0.57860 0.19497 0.54507 -0.07000
C 	C 	0.61930 0.19259 0.53733 0.07500
C 	C 	0.61474 0.15032 0.52536 0.01100
C 	C 	0.56982 0.10834 0.53110 -0.06800
C 	C 	0.56495 0.06112 0.52741 0.78400
H 	H 	0.49395 0.07995 0.53314 0.11700
H 	H 	0.65425 0.22441 0.53593 0.10700
C 	C 	0.58389 0.24160 0.55436 0.77900
F 	F 	0.52212 0.02543 0.54845 -0.36100
F 	F 	0.60114 0.06012 0.55172 -0.37800
F 	F 	0.56711 0.05299 0.47869 -0.38100
F 	F 	0.54688 0.23492 0.58443 -0.38600
F 	F 	0.58371 0.26364 0.51032 -0.41100
F 	F 	0.62609 0.27048 0.57714 -0.37400
C 	C 	0.27963 0.95718 0.52963 0.06500
C 	C 	0.26547 0.93032 0.48843 0.01300
C 	C 	0.27695 0.95284 0.44085 -0.07900
C 	C 	0.30451 0.00217 0.43565 0.06400
C 	C 	0.31960 0.02907 0.47684 0.01500
C 	C 	0.30650 0.00655 0.52449 -0.08000
C 	C 	0.31661 0.03473 0.56947 0.77900
H 	H 	0.26959 0.93942 0.56578 0.10300
H 	H 	0.31408 0.01990 0.39947 0.10400
C 	C 	0.25670 0.92463 0.39598 0.77800
F 	F 	0.30615 0.00690 0.61239 -0.39400
F 	F 	0.28886 0.05441 0.56924 -0.44000
F 	F 	0.36410 0.06985 0.56977 -0.44100
F 	F 	0.20768 0.90237 0.39840 -0.43900
F 	F 	0.26943 0.89148 0.39398 -0.44400
F 	F 	0.27313 0.95277 0.35296 -0.39000
C 	C 	0.32583 0.33254 0.38566 0.06600
C 	C 	0.27938 0.32223 0.39473 0.02400
C 	C 	0.24507 0.27822 0.41766 -0.09500
C 	C 	0.25978 0.24850 0.43748 0.07500
C 	C 	0.30750 0.26154 0.43351 0.01100
C 	C 	0.34032 0.30234 0.40469 -0.07300
C 	C 	0.39178 0.31609 0.39818 0.77800
H 	H 	0.35161 0.36587 0.36710 0.12500
H 	H 	0.23468 0.21641 0.45848 0.10500
C 	C 	0.19418 0.26545 0.42632 0.78800
F 	F 	0.41530 0.35101 0.36126 -0.38100
F 	F 	0.39413 0.27784 0.38593 -0.42500
F 	F 	0.41495 0.33235 0.44140 -0.40500
F 	F 	0.17667 0.27374 0.38364 -0.39900
F 	F 	0.19288 0.29226 0.46239 -0.43200
F 	F 	0.16465 0.21852 0.44119 -0.38300
C 	C 	0.35382 0.16597 0.71806 0.06600
C 	C 	0.39941 0.19041 0.69577 0.03000
C 	C 	0.43979 0.20322 0.72413 -0.06600
C 	C 	0.43324 0.18888 0.77410 0.07100
C 	C 	0.38767 0.16463 0.79644 0.01500
C 	C 	0.34727 0.15130 0.76797 -0.06300
C 	C 	0.29731 0.12240 0.79077 0.78100
H 	H 	0.32333 0.15746 0.69609 0.09700
H 	H 	0.46374 0.19754 0.79611 0.08700
C 	C 	0.48965 0.23009 0.70092 0.78400
F 	F 	0.26355 0.10236 0.75535 -0.38100
F 	F 	0.28772 0.15093 0.81691 -0.39100
F 	F 	0.29292 0.08639 0.82189 -0.39200
F 	F 	0.49555 0.26628 0.66903 -0.37000
F 	F 	0.49719 0.19977 0.67561 -0.37000
F 	F 	0.52388 0.24967 0.73597 -0.37900
C 	C 	0.43546 0.21390 0.22217 0.07100
C 	C 	0.39582 0.18495 0.19489 0.02900
C 	C 	0.35313 0.14903 0.21873 -0.07600
C 	C 	0.35121 0.14256 0.26999 0.07400
C 	C 	0.39085 0.17147 0.29728 0.01700
C 	C 	0.43333 0.20791 0.27349 -0.07100
C 	C 	0.47652 0.23981 0.30276 0.77700
H 	H 	0.46792 0.24111 0.20323 0.11700
H 	H 	0.31895 0.11492 0.28887 0.11100
C 	C 	0.31022 0.11688 0.18936 0.78200
F 	F 	0.51305 0.27532 0.27325 -0.38700
F 	F 	0.49326 0.21385 0.32582 -0.45300
F 	F 	0.46429 0.26045 0.33770 -0.41000
F 	F 	0.32171 0.09209 0.15929 -0.37200
F 	F 	0.29691 0.14314 0.16088 -0.43600
F 	F 	0.27156 0.08497 0.21923 -0.37600
C 	C 	0.54598 0.34419 0.00382 0.07300
C 	C 	0.50584 0.33397 0.03201 0.01800
C 	C 	0.50639 0.36960 0.05830 -0.06600
C 	C 	0.54801 0.41445 0.05682 0.06100
C 	C 	0.58962 0.42341 0.03240 0.02100
C 	C 	0.58862 0.38803 0.00498 -0.08700
C 	C 	0.63207 0.39708 0.97565 0.79600
H 	H 	0.54428 0.31722 0.98211 0.09000
H 	H 	0.54865 0.44229 0.07594 0.11200
C 	C 	0.46309 0.35983 0.08849 0.77800
F 	F 	0.62558 0.35628 0.95775 -0.40200
F 	F 	0.67139 0.41527 0.00462 -0.45800
F 	F 	0.64075 0.42826 0.93624 -0.41800
F 	F 	0.44966 0.32247 0.12214 -0.42000
F 	F 	0.42587 0.34939 0.05801 -0.39900
F 	F 	0.47217 0.39808 0.11420 -0.39200
C 	C 	0.56878 0.10254 0.01701 0.07200
C 	C 	0.61224 0.14401 0.02411 0.01600
C 	C 	0.61223 0.18102 0.04684 -0.07700
C 	C 	0.56927 0.18004 0.05138 0.06600
C 	C 	0.52688 0.14195 0.03551 0.02000
C 	C 	0.52564 0.10057 0.02473 -0.07700
C 	C 	0.47894 0.05599 0.01591 0.78300
H 	H 	0.56869 0.07318 0.00200 0.10500
H 	H 	0.56959 0.21082 0.06239 0.09800
C 	C 	0.65829 0.22344 0.06173 0.77800
F 	F 	0.48265 0.01705 0.02498 -0.37600
F 	F 	0.46670 0.05720 0.96778 -0.39900
F 	F 	0.44319 0.05133 0.04665 -0.37300
F 	F 	0.68287 0.25174 0.02049 -0.42300
F 	F 	0.68600 0.20934 0.08558 -0.42600
F 	F 	0.64986 0.24950 0.09332 -0.38500
C 	C 	0.27452 0.95225 0.02918 0.07200
C 	C 	0.25975 0.92549 0.98799 0.04000
C 	C 	0.27119 0.94799 0.94047 -0.06300
C 	C 	0.30027 0.99713 0.93522 0.07700
C 	C 	0.31591 0.02394 0.97639 0.03700
C 	C 	0.30226 0.00152 0.02405 -0.06100
C 	C 	0.31190 0.02971 0.06889 0.78600
H 	H 	0.26427 0.93448 0.06532 0.14500
H 	H 	0.31040 0.01483 0.89903 0.13000
C 	C 	0.24930 0.92004 0.89584 0.78900
F 	F 	0.30176 0.00202 0.11186 -0.34500
F 	F 	0.28344 0.04861 0.06838 -0.40700
F 	F 	0.35916 0.06535 0.06927 -0.40800
F 	F 	0.20034 0.89785 0.90019 -0.40600
F 	F 	0.26181 0.88689 0.89218 -0.40100
F 	F 	0.26430 0.94836 0.85291 -0.35900
C 	C 	0.25721 0.24125 0.93251 0.07700
C 	C 	0.30556 0.25619 0.93231 0.02300
C 	C 	0.33920 0.29902 0.90698 -0.07300
C 	C 	0.32472 0.32966 0.88955 0.07000
C 	C 	0.27719 0.31716 0.89555 0.02400
C 	C 	0.24245 0.27091 0.91268 -0.08300
C 	C 	0.19017 0.25467 0.91386 0.78400
H 	H 	0.23143 0.20748 0.95029 0.11700
H 	H 	0.35098 0.36465 0.87479 0.12200
C 	C 	0.39119 0.31411 0.90254 0.77900
F 	F 	0.16164 0.20647 0.92222 -0.36500
F 	F 	0.17829 0.26669 0.86943 -0.37100
F 	F 	0.18102 0.27581 0.95082 -0.39700
F 	F 	0.39546 0.27691 0.89030 -0.44300
F 	F 	0.41246 0.32991 0.94670 -0.40800
F 	F 	0.41520 0.34988 0.86653 -0.38600
C 	C 	0.99584 0.27132 0.44188 0.06600
C 	C 	0.96167 0.27412 0.41441 0.01600
C 	C 	0.97549 0.30252 0.37013 -0.07100
H 	H 	0.98462 0.24922 0.47552 0.10300
C 	C 	0.93876 0.30444 0.33843 0.78600
F 	F 	0.91117 0.31544 0.36604 -0.39200
F 	F 	0.90991 0.26133 0.31911 -0.39900
F 	F 	0.95983 0.33803 0.29991 -0.37600
C 	C 	0.99169 0.25535 0.91989 0.07200
C 	C 	0.95939 0.26771 0.90361 0.01500
C 	C 	0.97381 0.30432 0.86705 -0.06200
H 	H 	0.97967 0.22602 0.94658 0.10500
C 	C 	0.93771 0.31353 0.84353 0.78100
F 	F 	0.91932 0.32916 0.87790 -0.36600
F 	F 	0.90110 0.27259 0.82574 -0.40000
F 	F 	0.95776 0.34703 0.80483 -0.36500
C 	C 	0.76964 0.30541 0.62049 0.78400
H 	H 	0.76521 0.38371 0.60311 0.08700
F 	F 	0.76558 0.32607 0.66128 -0.37900
F 	F 	0.79908 0.28874 0.63209 -0.42100
H 	H 	0.84781 0.44351 0.96709 0.12400
C 	C 	0.86320 0.37506 0.93961 0.78900
F 	F 	0.83300 0.33540 0.91514 -0.39900
F 	F 	0.90396 0.37511 0.95112 -0.36900
F 	F 	0.87617 0.41383 0.90810 -0.36900
C 	C 	0.97766 0.70398 0.52400 0.06600
C 	C 	0.94659 0.61085 0.55390 0.07400
C 	C 	0.91402 0.62562 0.55229 0.02100
C 	C 	0.93011 0.67329 0.54030 -0.07600
C 	C 	0.89600 0.69067 0.54168 0.78100
H 	H 	0.93399 0.57435 0.56377 0.11900
F 	F 	0.91992 0.73920 0.53750 -0.38400
F 	F 	0.87001 0.67578 0.58560 -0.40600
F 	F 	0.86526 0.67325 0.50340 -0.42200
C 	C 	0.97190 0.70009 0.02119 0.06400
C 	C 	0.99108 0.64199 0.04937 -0.09100
C 	C 	0.94281 0.61031 0.06192 0.07500
C 	C 	0.90912 0.62306 0.05357 0.01700
C 	C 	0.92411 0.66938 0.03642 -0.06600
C 	C 	0.88886 0.68533 0.03228 0.77700
H 	H 	0.93103 0.57496 0.07607 0.10000
F 	F 	0.91160 0.73343 0.02297 -0.37600
F 	F 	0.86246 0.67380 0.07567 -0.39600
F 	F 	0.85861 0.66357 0.99451 -0.39900
F 	F 	0.01041 0.59088 0.09341 -0.38300
