data_crystal

_cell_length_a 41.29127
_cell_length_b 42.49479
_cell_length_c 28.51544
_cell_angle_alpha 94.43106
_cell_angle_beta  94.15122
_cell_angle_gamma 90.00836

_symmetry_space_group_name_	'P 1'
_symmetry_space_group_name_H-M	'P 1'

loop_
_symmetry_equiv_pos_as_xyz
  x,y,z

loop_
_atom_site_label
_atom_site_type_symbol
_atom_site_fract_x
_atom_site_fract_y
_atom_site_fract_z
_atom_site_charge
O 	O 	0.81480 0.05249 0.84415 -0.22700
O 	O 	0.83780 0.04135 0.77755 -0.28900
C 	C 	0.81168 0.04924 0.79839 0.28400
C 	C 	0.59252 0.09034 0.85327 0.16600
N 	N 	0.59239 0.11500 0.88651 -0.12100
C 	C 	0.56817 0.11798 0.91630 0.15200
N 	N 	0.54324 0.09685 0.91131 -0.14000
C 	C 	0.54248 0.07297 0.87675 0.15100
N 	N 	0.56758 0.06922 0.84863 -0.10600
C 	C 	0.59577 0.16750 0.33216 0.16000
N 	N 	0.59864 0.17516 0.28721 -0.12300
C 	C 	0.57242 0.17353 0.25550 0.14900
N 	N 	0.54289 0.16605 0.26956 -0.13900
C 	C 	0.53979 0.15860 0.31441 0.15200
N 	N 	0.56635 0.15872 0.34537 -0.10300
Cd	Cd	0.03393 0.09329 0.22748 1.24900
Cd	Cd	0.01319 0.06431 0.33621 1.19200
O 	O 	0.07133 0.13848 0.23622 -0.25900
O 	O 	0.05546 0.11627 0.16605 -0.28700
C 	C 	0.07274 0.13813 0.19093 0.27600
O 	O 	0.00759 0.04765 0.20527 -0.35300
O 	O 	0.98079 0.04677 0.27292 -0.42300
C 	C 	0.99142 0.03203 0.23469 0.29300
C 	C 	0.07890 0.05573 0.27831 0.31300
O 	O 	0.00636 0.11249 0.30445 -0.41100
O 	O 	0.08800 0.05836 0.23580 -0.26100
O 	O 	0.05453 0.07290 0.29012 -0.51700
O 	O 	0.98490 0.11950 0.23282 -0.29600
Cd	Cd	0.05811 0.17842 0.00057 1.25300
Cd	Cd	0.02423 0.12871 0.90423 1.19400
O 	O 	0.05951 0.23588 0.99519 -0.21500
O 	O 	0.07743 0.21432 0.05916 -0.28700
C 	C 	0.07517 0.23975 0.03646 0.29800
O 	O 	0.05624 0.13114 0.02946 -0.33000
O 	O 	0.05564 0.10331 0.95730 -0.39800
C 	C 	0.05198 0.10438 0.00299 0.29400
O 	O 	0.06624 0.16528 0.91054 -0.40500
O 	O 	0.01362 0.16914 0.95757 -0.52000
C 	C 	0.09672 0.16011 0.92195 0.30200
O 	O 	0.10626 0.16589 0.96648 -0.31000
C 	C 	0.19043 0.35241 0.84303 0.16000
N 	N 	0.18146 0.38299 0.85053 -0.10700
C 	C 	0.17864 0.40185 0.81429 0.15300
N 	N 	0.18498 0.39017 0.77027 -0.13800
C 	C 	0.19322 0.35940 0.76224 0.14900
N 	N 	0.19602 0.34051 0.79869 -0.12200
C 	C 	0.14237 0.32282 0.34614 0.16000
N 	N 	0.16231 0.31770 0.38490 -0.09900
C 	C 	0.16792 0.34113 0.41983 0.15400
N 	N 	0.15505 0.37017 0.41457 -0.13900
C 	C 	0.13627 0.37576 0.37506 0.15200
N 	N 	0.12912 0.35179 0.34158 -0.12400
Cd	Cd	0.14835 0.02287 0.76198 1.24900
Cd	Cd	0.14320 0.04606 0.88436 1.19800
O 	O 	0.09458 0.02855 0.77013 -0.34000
O 	O 	0.10170 0.06233 0.83673 -0.41800
C 	C 	0.08287 0.04327 0.80794 0.29200
O 	O 	0.17415 0.06371 0.82710 -0.41600
C 	C 	0.16590 0.08623 0.80027 0.31500
O 	O 	0.15476 0.07687 0.75730 -0.31100
C 	C 	0.11601 0.97478 0.42056 0.32300
O 	O 	0.12225 0.98458 0.46481 -0.25300
C 	C 	0.25721 0.98550 0.66880 0.77800
H 	H 	0.27586 0.93078 0.70429 0.13000
F 	F 	0.26922 0.00121 0.71073 -0.40300
F 	F 	0.24044 0.00666 0.64178 -0.38500
F 	F 	0.28297 0.97381 0.64451 -0.36500
C 	C 	0.19388 0.34553 0.71338 -0.04000
C 	C 	0.16487 0.34190 0.68389 0.11700
C 	C 	0.16656 0.33625 0.63503 -0.08100
C 	C 	0.19661 0.33178 0.61553 0.00300
C 	C 	0.22545 0.33192 0.64570 0.08800
C 	C 	0.22385 0.33959 0.69436 -0.04300
N 	N 	0.13540 0.34343 0.70235 -0.19900
H 	H 	0.14441 0.33533 0.61206 0.07300
C 	C 	0.19759 0.32924 0.56340 -0.00600
N 	N 	0.25452 0.32439 0.62834 -0.19400
H 	H 	0.24601 0.34146 0.71727 0.08000
C 	C 	0.21019 0.35450 0.54135 -0.07500
C 	C 	0.20468 0.35627 0.49243 0.11100
C 	C 	0.18380 0.33397 0.46602 -0.02400
C 	C 	0.17376 0.30725 0.48731 -0.05200
C 	C 	0.18152 0.30417 0.53550 0.10400
H 	H 	0.22380 0.37307 0.56239 0.06800
N 	N 	0.21988 0.37898 0.47092 -0.19700
H 	H 	0.15861 0.28958 0.46701 0.13000
N 	N 	0.17331 0.27728 0.55484 -0.19600
H 	H 	0.23403 0.39629 0.49085 0.10900
H 	H 	0.21932 0.37855 0.43420 0.11500
H 	H 	0.16028 0.25936 0.53449 0.14100
H 	H 	0.18100 0.27336 0.58960 0.12100
H 	H 	0.27582 0.32557 0.65059 0.11900
H 	H 	0.25612 0.31616 0.59314 0.11500
H 	H 	0.13338 0.34408 0.73870 0.11100
H 	H 	0.11405 0.34232 0.68022 0.11200
C 	C 	0.12778 0.13116 0.80577 -0.01300
C 	C 	0.15667 0.11709 0.82228 -0.08200
C 	C 	0.17076 0.12730 0.86745 0.09100
C 	C 	0.15194 0.14427 0.89955 -0.02700
C 	C 	0.12001 0.15264 0.88568 -0.05700
C 	C 	0.10946 0.14925 0.83721 0.09800
N 	N 	0.08060 0.16445 0.81979 -0.02500
H 	H 	0.11831 0.12615 0.76952 0.09200
H 	H 	0.16163 0.14966 0.93562 0.10800
N 	N 	0.20340 0.11873 0.88161 -0.02200
O 	O 	0.05745 0.14788 0.79631 -0.12000
O 	O 	0.07846 0.19505 0.82449 -0.01800
O 	O 	0.22625 0.12078 0.85285 -0.04000
O 	O 	0.21038 0.10922 0.92343 -0.09100
C 	C 	0.11786 0.31020 0.00745 0.04300
C 	C 	0.14786 0.29584 0.00019 0.08700
C 	C 	0.15740 0.27000 0.02623 -0.08300
C 	C 	0.13340 0.25344 0.04704 0.10000
C 	C 	0.10105 0.26379 0.04397 0.04300
C 	C 	0.09464 0.29476 0.03123 -0.04700
C 	C 	0.16564 0.30389 0.95938 0.09400
C 	C 	0.19226 0.25874 0.02882 0.78800
H 	H 	0.13908 0.23087 0.06084 0.11100
C 	C 	0.06188 0.30974 0.03756 0.77900
H 	H 	0.11156 0.33175 0.99099 0.11000
C 	C 	0.15587 0.29105 0.91301 -0.10300
C 	C 	0.16696 0.30540 0.87428 0.05000
C 	C 	0.18851 0.33110 0.88119 0.05100
C 	C 	0.20265 0.33981 0.92705 -0.08900
C 	C 	0.18948 0.32761 0.96596 0.04900
C 	C 	0.13120 0.26424 0.90456 0.78500
H 	H 	0.15693 0.29819 0.83890 0.08800
C 	C 	0.23040 0.36342 0.93505 0.78500
H 	H 	0.19703 0.33729 0.00136 0.12400
F 	F 	0.06525 0.34212 0.04626 -0.39900
F 	F 	0.04764 0.29819 0.07528 -0.37700
F 	F 	0.04180 0.30336 0.99700 -0.39000
F 	F 	0.21312 0.28410 0.04003 -0.39900
F 	F 	0.19933 0.24403 0.98585 -0.39200
F 	F 	0.19770 0.23762 0.06313 -0.38000
F 	F 	0.24957 0.35776 0.97536 -0.39500
F 	F 	0.21809 0.39364 0.94040 -0.43000
F 	F 	0.24998 0.36127 0.89755 -0.42000
F 	F 	0.13007 0.25133 0.85837 -0.42400
F 	F 	0.10067 0.27544 0.91361 -0.42500
F 	F 	0.13917 0.24027 0.93332 -0.42000
C 	C 	0.11113 0.02919 0.39483 -0.00300
C 	C 	0.11478 0.99680 0.38300 -0.07700
C 	C 	0.11465 0.98560 0.33501 0.07800
C 	C 	0.10488 0.00577 0.30001 -0.01100
C 	C 	0.09723 0.03729 0.31251 -0.09900
C 	C 	0.10288 0.04957 0.35974 0.10400
N 	N 	0.09990 0.08272 0.37214 -0.02600
H 	H 	0.11365 0.03843 0.43142 0.11600
H 	H 	0.10253 0.99674 0.26331 0.07500
O 	O 	0.08265 0.09259 0.40671 -0.08700
O 	O 	0.11557 0.10298 0.35021 -0.02600
C 	C 	0.08275 0.22168 0.17847 0.02900
C 	C 	0.11511 0.22390 0.19740 0.10400
C 	C 	0.13558 0.19730 0.19123 -0.11200
C 	C 	0.12139 0.16775 0.17624 0.06800
C 	C 	0.08755 0.16466 0.16996 0.00900
C 	C 	0.06896 0.19203 0.16331 -0.08000
C 	C 	0.12370 0.24927 0.23503 0.08500
C 	C 	0.17122 0.19887 0.20836 0.79100
H 	H 	0.13611 0.14664 0.17698 0.09000
C 	C 	0.03321 0.18950 0.14752 0.77600
H 	H 	0.06738 0.24233 0.18082 0.13300
C 	C 	0.13268 0.27995 0.22434 -0.08800
C 	C 	0.13919 0.30344 0.26147 0.05100
C 	C 	0.13550 0.29720 0.30848 0.05400
C 	C 	0.12404 0.26712 0.31855 -0.08600
C 	C 	0.12025 0.24303 0.28197 0.04600
C 	C 	0.13351 0.28823 0.17355 0.78300
H 	H 	0.14685 0.32679 0.25391 0.09200
C 	C 	0.11679 0.26004 0.36817 0.78300
H 	H 	0.11361 0.21940 0.28974 0.11500
F 	F 	0.02260 0.21661 0.12732 -0.40600
F 	F 	0.01554 0.18528 0.18596 -0.42400
F 	F 	0.02759 0.16423 0.11435 -0.44800
F 	F 	0.17454 0.19261 0.25533 -0.41600
F 	F 	0.18446 0.22822 0.20359 -0.38200
F 	F 	0.18867 0.17671 0.18257 -0.40300
F 	F 	0.09612 0.23430 0.36731 -0.41300
F 	F 	0.10185 0.28534 0.39114 -0.43700
F 	F 	0.14545 0.25315 0.39329 -0.42900
F 	F 	0.14721 0.31768 0.17065 -0.41000
F 	F 	0.10224 0.28839 0.15275 -0.41700
F 	F 	0.15168 0.26641 0.14855 -0.39500
C 	C 	0.44889 0.11531 0.33382 0.00400
C 	C 	0.45177 0.14830 0.33873 -0.08200
C 	C 	0.48186 0.16304 0.33529 0.13000
C 	C 	0.50937 0.14430 0.32630 -0.03600
C 	C 	0.50675 0.11133 0.32325 -0.04100
C 	C 	0.47666 0.09657 0.32613 0.08500
H 	H 	0.43052 0.16255 0.34520 0.08000
N 	N 	0.48422 0.19506 0.34108 -0.19800
H 	H 	0.52798 0.09709 0.31662 0.06800
H 	H 	0.46363 0.20875 0.34667 0.12500
H 	H 	0.50656 0.20661 0.34129 0.14200
C 	C 	0.51673 0.04877 0.87415 -0.04100
C 	C 	0.49366 0.04479 0.83484 0.13400
C 	C 	0.46853 0.02251 0.83503 -0.08100
C 	C 	0.46546 0.00506 0.87427 0.00700
C 	C 	0.48924 0.00819 0.91272 0.08400
C 	C 	0.51460 0.03011 0.91227 -0.04200
N 	N 	0.49491 0.06280 0.79755 -0.19800
H 	H 	0.45047 0.01974 0.80542 0.08900
C 	C 	0.43572 0.98594 0.87672 0.00300
H 	H 	0.53261 0.03287 0.94195 0.06700
C 	C 	0.40861 0.99874 0.89907 0.08600
N 	N 	0.40758 0.02990 0.91403 -0.19200
H 	H 	0.38772 0.03899 0.93128 0.11200
H 	H 	0.42610 0.04551 0.90811 0.10700
H 	H 	0.51213 0.08074 0.79730 0.15900
H 	H 	0.47803 0.05933 0.76847 0.14100
C 	C 	0.57225 0.13996 0.95928 -0.04200
C 	C 	0.54502 0.15379 0.98008 0.12600
C 	C 	0.54791 0.16499 0.02786 -0.08900
C 	C 	0.57810 0.16489 0.05381 0.00300
C 	C 	0.60624 0.15634 0.03050 0.08500
C 	C 	0.60303 0.14329 0.98365 -0.03600
N 	N 	0.51647 0.15715 0.95411 -0.20000
H 	H 	0.52656 0.17311 0.04513 0.07100
C 	C 	0.57914 0.16804 0.10601 -0.00100
N 	N 	0.63628 0.16022 0.05312 -0.19300
H 	H 	0.62433 0.13438 0.96699 0.08100
C 	C 	0.58268 0.14073 0.13042 -0.07800
C 	C 	0.58222 0.14229 0.17964 0.11800
C 	C 	0.57731 0.17176 0.20481 -0.04000
C 	C 	0.57450 0.19923 0.18060 -0.04300
C 	C 	0.57577 0.19774 0.13132 0.08800
H 	H 	0.58566 0.11809 0.11094 0.07100
N 	N 	0.58637 0.11544 0.20248 -0.19800
H 	H 	0.57106 0.22178 0.20006 0.07600
N 	N 	0.57407 0.22481 0.10875 -0.19400
H 	H 	0.58937 0.09373 0.18346 0.11400
H 	H 	0.58725 0.11581 0.23919 0.11300
H 	H 	0.57097 0.24655 0.12763 0.11900
H 	H 	0.57653 0.22469 0.07255 0.11400
H 	H 	0.65692 0.15275 0.03633 0.12800
H 	H 	0.63949 0.17176 0.08683 0.12000
H 	H 	0.51491 0.15295 0.91744 0.12400
H 	H 	0.49601 0.16592 0.97017 0.11400
O 	O 	0.98259 0.13049 0.41388 -0.10200
C 	C 	0.96614 0.01827 0.43565 -0.03300
C 	C 	0.93663 0.00160 0.42793 -0.07000
C 	C 	0.93628 0.96874 0.43203 0.06400
N 	N 	0.90645 0.95129 0.42484 -0.03100
H 	H 	0.96655 0.04358 0.43297 0.04600
O 	O 	0.88956 0.95083 0.38450 -0.24900
O 	O 	0.03532 0.03436 0.41681 -0.22500
C 	C 	0.69566 0.09339 0.46335 0.04700
C 	C 	0.70038 0.12509 0.45499 0.08900
C 	C 	0.73078 0.13952 0.46909 -0.09300
C 	C 	0.75785 0.12008 0.47759 0.08300
C 	C 	0.75407 0.08715 0.47363 0.03000
C 	C 	0.72257 0.07428 0.47397 -0.06000
C 	C 	0.67656 0.14030 0.42257 0.09200
C 	C 	0.73496 0.17501 0.47049 0.79000
H 	H 	0.78210 0.13018 0.48128 0.09900
C 	C 	0.71775 0.03941 0.47853 0.78000
H 	H 	0.67170 0.08288 0.45649 0.11000
C 	C 	0.67673 0.13401 0.37294 -0.10100
C 	C 	0.65050 0.14416 0.34380 0.05100
C 	C 	0.62537 0.16205 0.36283 0.05000
C 	C 	0.62748 0.17171 0.41168 -0.08200
C 	C 	0.65181 0.15881 0.44144 0.04400
C 	C 	0.70337 0.11430 0.35111 0.78600
H 	H 	0.64881 0.13694 0.30641 0.08800
C 	C 	0.60352 0.19493 0.43260 0.78300
H 	H 	0.65141 0.16302 0.47938 0.12900
F 	F 	0.68842 0.03395 0.49720 -0.39500
F 	F 	0.74229 0.02795 0.50812 -0.40100
F 	F 	0.71033 0.18987 0.49390 -0.40200
F 	F 	0.73411 0.18440 0.42507 -0.38800
F 	F 	0.76423 0.18465 0.49398 -0.39900
F 	F 	0.57599 0.17894 0.44259 -0.42100
F 	F 	0.59493 0.21760 0.40171 -0.41700
F 	F 	0.61696 0.21042 0.47396 -0.38900
F 	F 	0.70196 0.11557 0.30263 -0.41700
F 	F 	0.69996 0.08314 0.36072 -0.41900
F 	F 	0.73367 0.12525 0.36880 -0.40600
C 	C 	0.03854 0.04757 0.86305 -0.06100
C 	C 	0.04782 0.04041 0.81700 -0.08600
N 	N 	0.03151 0.02661 0.73267 -0.01900
H 	H 	0.05668 0.05468 0.89120 0.03600
O 	O 	0.03945 0.05082 0.71059 -0.06500
C 	C 	0.65534 0.07962 0.76262 0.04300
C 	C 	0.68248 0.07076 0.79101 0.09200
C 	C 	0.67987 0.06805 0.83991 -0.09900
C 	C 	0.64975 0.07353 0.85889 0.05300
C 	C 	0.62274 0.08260 0.83065 0.05000
C 	C 	0.62536 0.08581 0.78204 -0.08100
C 	C 	0.71418 0.06676 0.77008 0.09100
C 	C 	0.70953 0.06128 0.87246 0.78500
H 	H 	0.64733 0.07142 0.89611 0.08900
C 	C 	0.59624 0.09548 0.75086 0.78300
H 	H 	0.65778 0.08199 0.72549 0.12900
C 	C 	0.72554 0.03640 0.75575 -0.09400
C 	C 	0.75923 0.03099 0.75865 0.08500
C 	C 	0.78088 0.05602 0.77221 0.02900
C 	C 	0.76926 0.08733 0.77304 -0.06000
C 	C 	0.73566 0.09250 0.77314 0.04600
C 	C 	0.70202 0.00941 0.74137 0.79100
H 	H 	0.76839 0.00710 0.75491 0.10000
C 	C 	0.79255 0.11511 0.77964 0.78000
H 	H 	0.72653 0.11616 0.78041 0.11400
F 	F 	0.57270 0.07212 0.74783 -0.41800
F 	F 	0.60443 0.10011 0.70566 -0.39900
F 	F 	0.58351 0.12339 0.76972 -0.42300
F 	F 	0.73164 0.08581 0.87374 -0.41700
F 	F 	0.72408 0.03353 0.85684 -0.40300
F 	F 	0.70144 0.05812 0.91815 -0.41700
F 	F 	0.77825 0.14168 0.76215 -0.39900
F 	F 	0.82013 0.10852 0.75592 -0.41200
F 	F 	0.80133 0.12152 0.82713 -0.40000
F 	F 	0.71726 0.98441 0.71811 -0.39900
F 	F 	0.67698 0.01933 0.71121 -0.40400
F 	F 	0.68924 0.99892 0.78089 -0.39100
C 	C 	0.07137 0.49526 0.35809 0.00500
C 	C 	0.08790 0.52460 0.36600 0.08600
C 	C 	0.08886 0.46511 0.36318 0.00400
N 	N 	0.12092 0.52604 0.37032 -0.19300
C 	C 	0.10366 0.45066 0.32440 -0.08000
C 	C 	0.12127 0.42259 0.32850 0.12500
C 	C 	0.12117 0.40707 0.37079 -0.04300
C 	C 	0.10594 0.42135 0.40933 -0.04100
C 	C 	0.09046 0.45060 0.40636 0.08200
H 	H 	0.10269 0.46202 0.29156 0.08300
N 	N 	0.13937 0.41158 0.29279 -0.19800
H 	H 	0.10612 0.40966 0.44184 0.06800
N 	N 	0.07732 0.46462 0.44508 -0.19200
H 	H 	0.13774 0.42206 0.26073 0.13100
H 	H 	0.15682 0.39413 0.29753 0.12300
H 	H 	0.07810 0.45341 0.47651 0.10300
H 	H 	0.06682 0.48695 0.44481 0.10000
H 	H 	0.13287 0.54778 0.37702 0.11200
H 	H 	0.13505 0.50577 0.36653 0.10700
C 	C 	0.14511 0.49693 0.83552 -0.00300
C 	C 	0.12740 0.47529 0.80405 -0.07600
C 	C 	0.13705 0.44369 0.79833 0.11300
C 	C 	0.16630 0.43417 0.82212 -0.03200
C 	C 	0.18373 0.45567 0.85426 -0.04600
C 	C 	0.17309 0.48690 0.86186 0.09900
N 	N 	0.11758 0.42246 0.77147 -0.19700
H 	H 	0.20567 0.44809 0.87334 0.10500
N 	N 	0.18992 0.50711 0.89411 -0.19500
H 	H 	0.12141 0.39822 0.77200 0.10800
H 	H 	0.21084 0.49961 0.91283 0.13400
H 	H 	0.18223 0.53026 0.90144 0.12800
H 	H 	0.18397 0.52364 0.78522 0.10800
H 	H 	0.98170 0.68416 0.74336 0.12700
C 	C 	0.02205 0.06944 0.05132 -0.03300
C 	C 	0.04916 0.07450 0.02581 -0.05200
C 	C 	0.07026 0.04915 0.01566 0.09200
N 	N 	0.09959 0.05418 0.99328 -0.00500
H 	H 	0.00668 0.08911 0.06137 0.09000
O 	O 	0.11977 0.07641 0.01028 -0.10900
O 	O 	0.10696 0.03540 0.95747 -0.23100
O 	O 	0.89406 0.00436 0.04002 -0.11600
C 	C 	0.00233 0.97457 0.22579 -0.04800
C 	C 	0.98025 0.99941 0.22093 -0.06700
H 	H 	0.02819 0.97951 0.22945 0.05600
C 	C 	0.08696 0.67465 0.86074 0.15900
N 	N 	0.07570 0.68185 0.81679 -0.12400
C 	C 	0.07078 0.65856 0.78156 0.14900
N 	N 	0.07884 0.62843 0.78960 -0.14000
C 	C 	0.09107 0.62130 0.83287 0.15500
N 	N 	0.09406 0.64423 0.86877 -0.09700
C 	C 	0.98084 0.62059 0.36637 0.15800
N 	N 	0.98327 0.63133 0.41272 -0.12400
C 	C 	0.00463 0.61789 0.44363 0.14400
N 	N 	0.02166 0.59213 0.42897 -0.14000
C 	C 	0.01836 0.58052 0.38322 0.14700
N 	N 	0.99900 0.59553 0.35153 -0.09600
Cd	Cd	0.87283 0.03909 0.84314 1.24900
Cd	Cd	0.92212 0.04479 0.95155 1.20100
O 	O 	0.92359 0.03345 0.82031 -0.36000
O 	O 	0.94368 0.01686 0.89100 -0.42200
C 	C 	0.94850 0.02861 0.85060 0.28600
C 	C 	0.89323 0.09966 0.88496 0.31200
O 	O 	0.87585 0.01585 0.92592 -0.40900
O 	O 	0.88206 0.10148 0.84112 -0.21300
O 	O 	0.88965 0.07253 0.90162 -0.50800
O 	O 	0.87033 0.98614 0.85871 -0.32900
Cd	Cd	0.83600 0.04607 0.41209 1.25000
Cd	Cd	0.87124 0.01969 0.30612 1.19400
O 	O 	0.77949 0.06432 0.40607 -0.22700
O 	O 	0.80641 0.06128 0.47493 -0.28800
C 	C 	0.77936 0.06813 0.45166 0.29000
O 	O 	0.88319 0.02407 0.43647 -0.34500
O 	O 	0.90787 0.02991 0.36801 -0.43000
C 	C 	0.90729 0.01768 0.40906 0.29700
O 	O 	0.84977 0.06784 0.33195 -0.40800
O 	O 	0.82991 0.01141 0.35220 -0.51600
C 	C 	0.86535 0.09104 0.35624 0.31400
O 	O 	0.86271 0.09265 0.40174 -0.32700
C 	C 	0.98141 0.12123 0.27813 0.31600
C 	C 	0.98965 0.17380 0.98379 0.31300
O 	O 	0.99692 0.18725 0.02610 -0.18600
C 	C 	0.91741 0.12113 0.36504 -0.02000
C 	C 	0.89113 0.10843 0.33570 -0.08200
C 	C 	0.89205 0.10853 0.28630 0.09400
C 	C 	0.92129 0.11532 0.26705 -0.01900
C 	C 	0.94903 0.12368 0.29678 -0.07700
C 	C 	0.94610 0.12947 0.34571 0.08700
N 	N 	0.97232 0.14354 0.37582 -0.02400
H 	H 	0.91603 0.12355 0.40295 0.08900
H 	H 	0.92263 0.11314 0.22913 0.09800
N 	N 	0.86325 0.10247 0.25577 -0.02600
O 	O 	0.98499 0.17012 0.36623 -0.03000
O 	O 	0.83682 0.11807 0.26357 -0.03400
O 	O 	0.86407 0.08299 0.21838 -0.08400
C 	C 	0.99119 0.02721 0.79180 -0.03400
C 	C 	0.98228 0.03420 0.83813 -0.07900
C 	C 	0.00599 0.04571 0.87323 0.02500
C 	C 	0.02366 0.03095 0.78076 0.10200
H 	H 	0.97298 0.01908 0.76423 0.08500
N 	N 	0.99714 0.05503 0.91972 -0.02400
O 	O 	0.02741 0.99912 0.70962 -0.06300
O 	O 	0.99982 0.03505 0.95197 -0.19500
O 	O 	0.98224 0.08163 0.92794 -0.27400
C 	C 	0.94705 0.17091 0.91843 -0.04500
C 	C 	0.95627 0.16567 0.96552 -0.07900
C 	C 	0.93767 0.14489 0.98889 0.10100
C 	C 	0.91481 0.12494 0.96272 -0.03700
C 	C 	0.90980 0.12632 0.91358 -0.08800
C 	C 	0.92413 0.15121 0.89217 0.10500
N 	N 	0.91620 0.15606 0.84365 -0.02200
H 	H 	0.95975 0.18852 0.90106 0.08200
H 	H 	0.90181 0.10766 0.98032 0.03600
N 	N 	0.94231 0.14359 0.03895 -0.02400
O 	O 	0.88875 0.16907 0.83100 -0.00500
O 	O 	0.93766 0.15033 0.81293 -0.08400
O 	O 	0.93891 0.16898 0.06665 -0.01100
O 	O 	0.94645 0.11655 0.05689 -0.09000
C 	C 	0.03589 0.55169 0.36821 -0.03400
C 	C 	0.01938 0.52245 0.35770 0.13300
C 	C 	0.03742 0.49465 0.35111 -0.07900
C 	C 	0.06992 0.55258 0.37040 -0.04300
N 	N 	0.98640 0.52069 0.35579 -0.19500
H 	H 	0.02490 0.47217 0.34387 0.08400
H 	H 	0.08248 0.57504 0.37759 0.07000
H 	H 	0.97229 0.54036 0.36434 0.17000
H 	H 	0.97449 0.49911 0.34693 0.14300
C 	C 	0.10680 0.59064 0.83824 -0.02900
C 	C 	0.09444 0.56835 0.86690 0.13100
C 	C 	0.10869 0.53839 0.86774 -0.07800
C 	C 	0.13438 0.53015 0.83969 0.00600
C 	C 	0.14744 0.55282 0.81235 0.08700
C 	C 	0.13366 0.58296 0.81231 -0.03600
N 	N 	0.06852 0.57522 0.89269 -0.19600
H 	H 	0.09901 0.52102 0.88900 0.08300
N 	N 	0.17293 0.54574 0.78578 -0.19300
H 	H 	0.14345 0.60034 0.79115 0.07800
H 	H 	0.10563 0.48296 0.78463 0.06700
H 	H 	0.09703 0.43002 0.75195 0.10700
H 	H 	0.18218 0.56259 0.76541 0.11300
H 	H 	0.05662 0.59685 0.89169 0.13300
H 	H 	0.05973 0.55862 0.91390 0.13000
C 	C 	0.00884 0.63064 0.49341 -0.03900
C 	C 	0.01915 0.66224 0.50600 0.12000
C 	C 	0.02506 0.67254 0.55391 -0.07900
C 	C 	0.02406 0.65118 0.58889 0.00100
C 	C 	0.01309 0.61985 0.57646 0.08500
C 	C 	0.00500 0.61013 0.52889 -0.04900
N 	N 	0.02493 0.68230 0.47252 -0.19700
H 	H 	0.03293 0.69665 0.56370 0.08100
C 	C 	0.03769 0.66086 0.63744 0.00500
N 	N 	0.01070 0.59889 0.60983 -0.19300
H 	H 	0.99663 0.58614 0.51929 0.07200
C 	C 	0.01652 0.67028 0.67214 -0.08400
C 	C 	0.02748 0.67263 0.72014 0.12300
C 	C 	0.06044 0.66624 0.73324 -0.03900
C 	C 	0.08231 0.66084 0.69813 -0.04100
C 	C 	0.07123 0.65756 0.65029 0.08600
H 	H 	0.99107 0.67401 0.66199 0.08300
N 	N 	0.00615 0.68031 0.75333 -0.20000
H 	H 	0.10777 0.65707 0.70823 0.07400
N 	N 	0.09274 0.65046 0.61712 -0.19200
H 	H 	0.01366 0.68320 0.78914 0.12600
H 	H 	0.11735 0.64754 0.62709 0.11300
H 	H 	0.08544 0.64807 0.58122 0.10600
H 	H 	0.00288 0.57574 0.60019 0.10600
H 	H 	0.01637 0.60527 0.64555 0.10300
H 	H 	0.02552 0.67439 0.43706 0.12100
C 	C 	0.06177 0.01851 0.02568 -0.02700
C 	C 	0.03210 0.01282 0.04455 -0.07900
C 	C 	0.01303 0.03861 0.06002 0.09800
H 	H 	0.07699 0.99882 0.01518 0.05500
N 	N 	0.98316 0.03335 0.08102 -0.01900
O 	O 	0.95702 0.04824 0.06753 -0.12400
F 	F 	0.15413 0.67733 0.88593 -0.42500
F 	F 	0.13929 0.64939 0.94529 -0.41900
C 	C 	0.94670 0.99254 0.21360 0.08200
N 	N 	0.92388 0.01695 0.20287 -0.01200
O 	O 	0.89517 0.01676 0.21882 -0.20500
O 	O 	0.93090 0.03796 0.17425 -0.06200
C 	C 	0.96163 0.63859 0.33162 0.05400
C 	C 	0.94114 0.62329 0.29456 -0.08500
C 	C 	0.93286 0.58844 0.29378 0.78200
F 	F 	0.90486 0.58115 0.26529 -0.40700
F 	F 	0.92753 0.58026 0.33864 -0.43700
F 	F 	0.95799 0.57064 0.27639 -0.42100
Cd	Cd	0.91545 0.89511 0.34515 1.19000
O 	O 	0.95224 0.90525 0.29347 -0.42500
C 	C 	0.94544 0.90908 0.24835 0.29300
O 	O 	0.93268 0.84338 0.33314 -0.41800
C 	C 	0.96093 0.83411 0.32010 0.31200
O 	O 	0.96272 0.82687 0.27506 -0.29800
C 	C 	0.07819 0.92861 0.97727 0.31000
O 	O 	0.09072 0.91869 0.01686 -0.20100
O 	O 	0.20152 0.00521 0.73797 -0.25000
O 	O 	0.15803 0.99935 0.68957 -0.30900
C 	C 	0.18863 0.99264 0.69801 0.29700
C 	C 	0.14405 0.97587 0.82701 0.33500
O 	O 	0.14056 0.96358 0.78355 -0.24200
O 	O 	0.15377 0.00498 0.83192 -0.51700
Cd	Cd	0.09627 0.92925 0.48131 1.24800
Cd	Cd	0.06779 0.92233 0.35976 1.19900
O 	O 	0.15239 0.91335 0.50111 -0.25300
O 	O 	0.12362 0.93819 0.55358 -0.31100
C 	C 	0.15216 0.92804 0.54276 0.29700
O 	O 	0.04791 0.95362 0.47964 -0.34400
O 	O 	0.02781 0.92833 0.40947 -0.42300
C 	C 	0.02597 0.95119 0.44322 0.28800
O 	O 	0.08754 0.88594 0.41117 -0.42000
O 	O 	0.10539 0.94602 0.41307 -0.51300
C 	C 	0.07028 0.87001 0.43771 0.30500
O 	O 	0.07071 0.88079 0.48194 -0.30500
C 	C 	0.30644 0.90069 0.88046 0.15100
N 	N 	0.33361 0.91547 0.86888 -0.12500
C 	C 	0.35627 0.92645 0.90309 0.14900
N 	N 	0.35129 0.92339 0.94901 -0.13900
C 	C 	0.32392 0.90925 0.96092 0.15900
N 	N 	0.30206 0.89691 0.92649 -0.09300
C 	C 	0.29672 0.00887 0.36494 0.16400
N 	N 	0.31646 0.03445 0.36533 -0.11900
C 	C 	0.33547 0.03779 0.32917 0.15200
N 	N 	0.33439 0.01562 0.29215 -0.14100
C 	C 	0.31453 0.99008 0.29138 0.15100
N 	N 	0.29594 0.98654 0.32806 -0.10600
C 	C 	0.31438 0.91443 0.00966 -0.03000
C 	C 	0.31755 0.89039 0.04133 0.12700
C 	C 	0.31404 0.89798 0.08958 -0.07800
C 	C 	0.30776 0.92911 0.10654 0.00600
C 	C 	0.30325 0.95285 0.07441 0.08700
C 	C 	0.30579 0.94499 0.02614 -0.03400
N 	N 	0.32420 0.86016 0.02585 -0.20000
H 	H 	0.31702 0.87977 0.11415 0.08000
C 	C 	0.30869 0.93709 0.15818 -0.00400
N 	N 	0.29736 0.98332 0.08972 -0.19300
H 	H 	0.30273 0.96319 0.00153 0.08500
C 	C 	0.33889 0.94132 0.18367 -0.07600
C 	C 	0.34097 0.95519 0.23009 0.11200
C 	C 	0.31249 0.96677 0.25005 -0.03000
C 	C 	0.28207 0.95948 0.22649 -0.05100
C 	C 	0.27990 0.94401 0.18097 0.10100
H 	H 	0.36088 0.93447 0.16699 0.06700
N 	N 	0.37014 0.95677 0.25558 -0.19700
H 	H 	0.26011 0.96706 0.24266 0.11200
N 	N 	0.25026 0.93659 0.15898 -0.19500
H 	H 	0.39131 0.94955 0.23994 0.10800
H 	H 	0.37180 0.96350 0.29168 0.11400
H 	H 	0.22908 0.94278 0.17535 0.13900
H 	H 	0.24798 0.92374 0.12617 0.13400
H 	H 	0.29363 0.00050 0.06558 0.11400
H 	H 	0.29699 0.99046 0.12550 0.10700
H 	H 	0.32604 0.85358 0.99011 0.13200
H 	H 	0.32708 0.84267 0.04964 0.12400
C 	C 	0.23682 0.94787 0.53881 0.03900
C 	C 	0.23187 0.97935 0.52836 0.11300
C 	C 	0.20515 0.99592 0.54667 -0.10100
C 	C 	0.18027 0.97867 0.56432 0.07200
C 	C 	0.18158 0.94560 0.56180 -0.00100
C 	C 	0.21213 0.93116 0.55767 -0.07100
C 	C 	0.24811 0.99101 0.48823 0.08400
C 	C 	0.20084 0.03098 0.54201 0.79700
H 	H 	0.15802 0.99047 0.57331 0.09000
C 	C 	0.21704 0.89676 0.56615 0.77700
H 	H 	0.25812 0.93542 0.52741 0.13100
C 	C 	0.28177 0.99822 0.49184 -0.09600
C 	C 	0.29728 0.00278 0.45060 0.05100
C 	C 	0.27935 0.00361 0.40703 0.05100
C 	C 	0.24515 0.00013 0.40447 -0.08700
C 	C 	0.23021 0.99182 0.44453 0.04500
C 	C 	0.30153 0.99989 0.53898 0.78700
H 	H 	0.32344 0.00561 0.45226 0.08900
C 	C 	0.22459 0.00398 0.35892 0.78500
H 	H 	0.20463 0.98559 0.44174 0.10400
F 	F 	0.24728 0.89273 0.58907 -0.37500
F 	F 	0.21527 0.87889 0.52340 -0.40000
F 	F 	0.19378 0.88606 0.59376 -0.39300
F 	F 	0.18275 0.03556 0.50039 -0.42500
F 	F 	0.23042 0.04625 0.54215 -0.37600
F 	F 	0.18467 0.04449 0.57933 -0.40000
F 	F 	0.22671 0.97703 0.32890 -0.43800
F 	F 	0.23497 0.02974 0.33705 -0.42400
F 	F 	0.19230 0.00881 0.36739 -0.42200
F 	F 	0.33047 0.01602 0.53689 -0.40500
F 	F 	0.30862 0.96974 0.55142 -0.39300
F 	F 	0.28462 0.01563 0.57360 -0.34700
C 	C 	0.23072 0.90797 0.80093 0.04300
C 	C 	0.24189 0.89484 0.75842 0.08800
C 	C 	0.26940 0.87495 0.75979 -0.09900
C 	C 	0.28895 0.87425 0.80220 0.05000
C 	C 	0.28047 0.89173 0.84330 0.05600
C 	C 	0.24946 0.90611 0.84379 -0.09200
C 	C 	0.23012 0.90874 0.71417 0.11300
C 	C 	0.28000 0.85692 0.71557 0.78700
H 	H 	0.31195 0.86194 0.80243 0.09100
C 	C 	0.23675 0.92037 0.88937 0.78600
H 	H 	0.20897 0.92223 0.79988 0.11000
C 	C 	0.19655 0.90814 0.69978 -0.10000
C 	C 	0.18248 0.93519 0.68151 0.07800
C 	C 	0.20157 0.96230 0.67929 -0.00200
C 	C 	0.23558 0.95861 0.67913 -0.07000
C 	C 	0.24975 0.93158 0.69705 0.04200
C 	C 	0.17497 0.88101 0.70971 0.79600
H 	H 	0.15630 0.93666 0.67582 0.09100
F 	F 	0.23655 0.89780 0.92179 -0.41400
F 	F 	0.20530 0.93119 0.88234 -0.43600
F 	F 	0.25613 0.94559 0.90767 -0.44900
F 	F 	0.30208 0.87490 0.69486 -0.40100
F 	F 	0.25392 0.84955 0.68339 -0.35600
F 	F 	0.29468 0.82891 0.72674 -0.39800
F 	F 	0.15051 0.87615 0.67406 -0.38800
F 	F 	0.16106 0.88802 0.75191 -0.42000
F 	F 	0.19236 0.85330 0.71235 -0.37100
N 	N 	0.12621 0.95459 0.32176 -0.03900
O 	O 	0.11086 0.93721 0.28766 -0.14800
O 	O 	0.15383 0.94505 0.34040 -0.03400
C 	C 	0.36042 0.06293 0.33325 -0.03900
C 	C 	0.36652 0.08023 0.29429 0.12000
C 	C 	0.39516 0.09816 0.29559 -0.08000
C 	C 	0.41660 0.10065 0.33615 -0.00100
C 	C 	0.40827 0.08677 0.37720 0.09400
C 	C 	0.38053 0.06751 0.37509 -0.04500
N 	N 	0.34460 0.08046 0.25635 -0.19900
H 	H 	0.40094 0.10996 0.26482 0.07000
N 	N 	0.42703 0.09144 0.41838 -0.19400
H 	H 	0.37520 0.05520 0.40560 0.08100
N 	N 	0.47451 0.06451 0.32063 -0.19300
H 	H 	0.49526 0.05093 0.31560 0.11200
H 	H 	0.45233 0.05273 0.32057 0.10400
H 	H 	0.42128 0.08026 0.44812 0.13100
H 	H 	0.44690 0.10686 0.42171 0.12400
H 	H 	0.32137 0.07085 0.25696 0.12900
H 	H 	0.34999 0.09200 0.22677 0.11400
N 	N 	0.48775 0.99038 0.95019 -0.19300
C 	C 	0.43545 0.95409 0.85963 -0.07700
C 	C 	0.40943 0.93418 0.86711 0.12400
C 	C 	0.38293 0.94674 0.89123 -0.04000
C 	C 	0.38252 0.97895 0.90616 -0.04100
H 	H 	0.45608 0.94449 0.84196 0.08300
N 	N 	0.41043 0.90304 0.85203 -0.19800
H 	H 	0.36193 0.98858 0.92391 0.07100
H 	H 	0.43007 0.89407 0.83414 0.12700
H 	H 	0.39200 0.88738 0.85813 0.12300
H 	H 	0.50504 0.99334 0.97884 0.10800
H 	H 	0.46988 0.97310 0.95098 0.10500
C 	C 	0.96556 0.95271 0.44092 -0.03100
C 	C 	0.99531 0.96911 0.44575 -0.06800
C 	C 	0.99540 0.00225 0.44506 0.07400
H 	H 	0.96527 0.92724 0.44153 0.04400
N 	N 	0.02530 0.01955 0.45130 -0.01700
O 	O 	0.04124 0.02245 0.49246 -0.06600
F 	F 	0.71792 0.02328 0.43453 -0.39400
O 	O 	0.98178 0.01270 0.11220 -0.07000
N 	N 	0.87734 0.98614 0.00836 -0.03000
O 	O 	0.84581 0.98776 0.00505 -0.04900
C 	C 	0.08633 0.92941 0.89240 -0.03700
C 	C 	0.09833 0.93650 0.93929 -0.07800
C 	C 	0.12718 0.95434 0.94893 0.11800
C 	C 	0.14204 0.96702 0.91190 -0.01900
C 	C 	0.12887 0.96134 0.86522 -0.09200
C 	C 	0.10076 0.94237 0.85560 0.11500
N 	N 	0.08551 0.93796 0.80890 -0.02700
H 	H 	0.06465 0.91500 0.88462 0.05300
H 	H 	0.16392 0.98115 0.91944 0.06200
N 	N 	0.14187 0.95901 0.99592 -0.01900
O 	O 	0.08651 0.91053 0.78546 -0.01500
O 	O 	0.06785 0.96031 0.79184 -0.10100
O 	O 	0.15790 0.93613 0.01447 -0.00500
O 	O 	0.14317 0.98715 0.01742 -0.08700
F 	F 	0.03247 0.77791 0.89088 -0.41600
C 	C 	0.95747 0.93773 0.22890 -0.07900
C 	C 	0.99110 0.94370 0.22961 0.09700
N 	N 	0.01391 0.91867 0.23557 -0.01400
O 	O 	0.01078 0.89253 0.20868 -0.07200
O 	O 	0.03859 0.92251 0.26651 -0.20300
C 	C 	0.04804 0.83415 0.37077 -0.04300
C 	C 	0.04426 0.84877 0.41585 -0.07800
C 	C 	0.01314 0.84952 0.43328 0.10000
C 	C 	0.98583 0.84231 0.40232 -0.02800
C 	C 	0.98944 0.83312 0.35457 -0.07000
C 	C 	0.02084 0.82642 0.33989 0.11000
N 	N 	0.02525 0.81183 0.29394 -0.02300
H 	H 	0.07214 0.83094 0.35846 0.08200
H 	H 	0.96182 0.84470 0.41518 0.06200
N 	N 	0.00922 0.85711 0.48230 -0.02000
O 	O 	0.04005 0.82707 0.26384 -0.06200
O 	O 	0.01734 0.78233 0.28383 0.01000
O 	O 	0.99031 0.88013 0.49537 -0.08200
O 	O 	0.02233 0.83932 0.51353 -0.04600
C 	C 	0.96614 0.69462 0.18094 0.79000
H 	H 	0.93899 0.75142 0.16114 0.10800
F 	F 	0.98990 0.70412 0.21577 -0.38500
F 	F 	0.97436 0.70526 0.13867 -0.37200
F 	F 	0.95888 0.74118 0.28240 -0.41600
Cd	Cd	0.91228 0.84137 0.24330 1.25000
O 	O 	0.88266 0.79153 0.24616 -0.22100
O 	O 	0.90473 0.80326 0.18211 -0.30100
C 	C 	0.88934 0.78238 0.20344 0.29300
O 	O 	0.93370 0.88536 0.21927 -0.35200
C 	C 	0.85703 0.87844 0.26320 0.30800
O 	O 	0.85369 0.86572 0.21985 -0.23500
O 	O 	0.88166 0.86899 0.28884 -0.52400
Cd	Cd	0.02833 0.90798 0.03179 1.24900
Cd	Cd	0.00794 0.95194 0.93111 1.18200
O 	O 	0.04080 0.85227 0.01313 -0.22400
O 	O 	0.04793 0.87380 0.08576 -0.28000
C 	C 	0.05006 0.84872 0.05681 0.27300
O 	O 	0.02785 0.95811 0.06224 -0.35400
O 	O 	0.99554 0.97531 0.00080 -0.41500
C 	C 	0.01757 0.98104 0.03619 0.29500
O 	O 	0.98591 0.90762 0.95914 -0.41700
O 	O 	0.04733 0.92391 0.96893 -0.51700
C 	C 	0.96274 0.90729 0.98760 0.31600
O 	O 	0.97189 0.90438 0.03199 -0.32500
C 	C 	0.87494 0.98759 0.90475 0.30700
C 	C 	0.81822 0.98592 0.36660 0.31900
O 	O 	0.80931 0.98830 0.40981 -0.22100
O 	O 	0.89800 0.93325 0.45676 -0.10300
H 	H 	0.03085 0.70594 0.48223 0.12600
C 	C 	0.91582 0.94249 0.00041 -0.03500
C 	C 	0.93019 0.91848 0.97268 -0.08000
C 	C 	0.91773 0.91150 0.92561 0.09200
C 	C 	0.89662 0.93279 0.90405 -0.02600
C 	C 	0.88682 0.96013 0.92987 -0.08400
C 	C 	0.89345 0.96291 0.97942 0.09100
H 	H 	0.92339 0.94651 0.03758 0.08600
H 	H 	0.88911 0.92876 0.86687 0.08900
N 	N 	0.92787 0.88367 0.89902 -0.02200
O 	O 	0.92861 0.85665 0.91762 -0.03300
O 	O 	0.93570 0.88522 0.85587 -0.08000
C 	C 	0.10992 0.79041 0.02882 0.04900
C 	C 	0.08826 0.76481 0.02323 0.08600
C 	C 	0.06246 0.76443 0.05311 -0.09600
C 	C 	0.05245 0.79325 0.07514 0.08100
C 	C 	0.06937 0.82115 0.06913 0.03300
C 	C 	0.10123 0.81844 0.05410 -0.07100
C 	C 	0.08863 0.74270 0.98040 0.09500
C 	C 	0.04466 0.73409 0.05942 0.79000
H 	H 	0.02949 0.79458 0.09136 0.09900
C 	C 	0.12391 0.84653 0.05797 0.78200
H 	H 	0.13175 0.78965 0.00981 0.11000
C 	C 	0.06734 0.74676 0.93998 -0.09500
C 	C 	0.06631 0.72349 0.90208 0.05600
C 	C 	0.08983 0.69966 0.90019 0.05600
C 	C 	0.11502 0.69946 0.93693 -0.08700
C 	C 	0.11229 0.71910 0.97847 0.05100
C 	C 	0.04732 0.77660 0.93581 0.78600
H 	H 	0.04735 0.72402 0.87382 0.09300
C 	C 	0.14516 0.67934 0.93191 0.78400
H 	H 	0.12934 0.71681 0.00875 0.11100
F 	F 	0.12185 0.86061 0.01577 -0.40800
F 	F 	0.15555 0.83684 0.06741 -0.41100
F 	F 	0.11629 0.86837 0.09398 -0.42200
F 	F 	0.06603 0.70902 0.05949 -0.40900
F 	F 	0.02087 0.72828 0.02313 -0.38600
F 	F 	0.03024 0.73609 0.10187 -0.37900
F 	F 	0.17113 0.69231 0.96037 -0.40900
F 	F 	0.06709 0.80293 0.94501 -0.41800
F 	F 	0.02336 0.77771 0.96725 -0.40200
C 	C 	0.93552 0.96171 0.21806 -0.03900
H 	H 	0.90970 0.95681 0.21548 0.05300
C 	C 	0.81922 0.95696 0.28752 -0.04500
C 	C 	0.81609 0.95606 0.33616 -0.09100
C 	C 	0.81606 0.92654 0.35569 0.11600
C 	C 	0.82558 0.89955 0.32894 -0.04600
C 	C 	0.83416 0.90164 0.28254 -0.08700
C 	C 	0.82767 0.92968 0.26041 0.08700
N 	N 	0.82965 0.93057 0.21060 -0.02400
H 	H 	0.81625 0.97905 0.27111 0.03800
H 	H 	0.82816 0.87735 0.34513 0.08100
N 	N 	0.80631 0.92380 0.40232 -0.02100
O 	O 	0.81158 0.91169 0.18160 -0.03700
O 	O 	0.84598 0.95298 0.19430 -0.10500
O 	O 	0.77623 0.92879 0.41137 -0.01300
O 	O 	0.82649 0.91283 0.43415 -0.06000
C 	C 	0.88157 0.69969 0.22548 0.04700
C 	C 	0.91461 0.69229 0.22463 0.09100
C 	C 	0.93359 0.70767 0.19391 -0.09600
C 	C 	0.92263 0.73662 0.17795 0.08400
C 	C 	0.89223 0.74833 0.18992 0.02900
C 	C 	0.86978 0.72711 0.20575 -0.06200
C 	C 	0.93018 0.67412 0.26243 0.09100
C 	C 	0.83424 0.73536 0.20709 0.78100
H 	H 	0.86590 0.68593 0.24506 0.11200
C 	C 	0.94609 0.68969 0.30355 -0.09700
C 	C 	0.96381 0.67167 0.33572 0.05600
C 	C 	0.92771 0.64111 0.25840 0.04600
C 	C 	0.94300 0.72516 0.31436 0.78400
H 	H 	0.97912 0.68335 0.36433 0.08700
H 	H 	0.91471 0.62938 0.22753 0.12000
F 	F 	0.82847 0.74907 0.25125 -0.39500
F 	F 	0.81534 0.70837 0.19798 -0.40000
F 	F 	0.82514 0.75610 0.17345 -0.40600
F 	F 	0.96504 0.66198 0.17577 -0.40700
F 	F 	0.95632 0.73473 0.35916 -0.43000
F 	F 	0.91064 0.73365 0.31208 -0.42600
