data_crystal

_cell_length_a 35.39848
_cell_length_b 35.70609
_cell_length_c 19.72005
_cell_angle_alpha 91.63752
_cell_angle_beta  90.20209
_cell_angle_gamma 90.07966

_symmetry_space_group_name_	'P 1'
_symmetry_space_group_name_H-M	'P 1'

loop_
_symmetry_equiv_pos_as_xyz
  x,y,z

loop_
_atom_site_label
_atom_site_type_symbol
_atom_site_fract_x
_atom_site_fract_y
_atom_site_fract_z
_atom_site_charge
Cd	Cd	0.95572 0.85837 0.22149 1.23800
Cd	Cd	0.92235 0.89285 0.38026 1.16100
O 	O 	0.91871 0.81025 0.15854 -0.32500
O 	O 	0.97137 0.83278 0.11864 -0.36000
C 	C 	0.94527 0.80706 0.11334 0.27400
O 	O 	0.99457 0.90654 0.24574 -0.40600
O 	O 	0.98322 0.90580 0.35962 -0.46200
C 	C 	0.99503 0.92363 0.30602 0.25800
C 	C 	0.89844 0.91389 0.22637 0.29100
O 	O 	0.93810 0.83274 0.34253 -0.46100
O 	O 	0.91216 0.91015 0.16498 -0.29000
O 	O 	0.90800 0.88782 0.26733 -0.54300
C 	C 	0.97151 0.81742 0.34236 0.29200
O 	O 	0.99103 0.81981 0.28684 -0.39800
Cd	Cd	0.95149 0.96446 0.96579 1.23700
Cd	Cd	0.95027 0.03381 0.83863 1.17200
O 	O 	0.90914 0.91080 0.94540 -0.32600
O 	O 	0.95185 0.91102 0.02590 -0.34600
C 	C 	0.92724 0.89166 0.99002 0.26900
O 	O 	0.00037 0.00297 0.99327 -0.38900
O 	O 	0.97692 0.05336 0.93661 -0.42600
C 	C 	0.00479 0.03696 0.96869 0.27900
C 	C 	0.99100 0.95036 0.84197 0.30900
O 	O 	0.90412 0.01131 0.91132 -0.45200
O 	O 	0.99915 0.92581 0.88730 -0.31400
O 	O 	0.96344 0.97284 0.85819 -0.54600
C 	C 	0.89653 0.02417 0.97253 0.28800
O 	O 	0.91047 0.00483 0.02187 -0.34900
C 	C 	0.95066 0.74456 0.87892 0.11000
N 	N 	0.94335 0.74090 0.81134 -0.14300
C 	C 	0.95587 0.71029 0.77563 0.12600
N 	N 	0.97372 0.68242 0.80829 -0.14400
C 	C 	0.97995 0.68547 0.87613 0.13100
N 	N 	0.96919 0.71691 0.91111 -0.14200
C 	C 	0.98071 0.66817 0.16313 0.11000
N 	N 	0.96981 0.67644 0.22777 -0.14100
C 	C 	0.98003 0.65398 0.27889 0.12600
N 	N 	0.99949 0.62202 0.26477 -0.14200
C 	C 	0.01176 0.61425 0.20072 0.12100
N 	N 	0.00277 0.63769 0.14988 -0.14300
Cd	Cd	0.94668 0.18712 0.75245 1.24100
Cd	Cd	0.00480 0.20043 0.89631 1.16100
O 	O 	0.88795 0.22389 0.74316 -0.32000
O 	O 	0.90507 0.18311 0.66484 -0.35000
C 	C 	0.87749 0.20231 0.69223 0.26500
O 	O 	0.99705 0.15187 0.72781 -0.38800
O 	O 	0.01613 0.14632 0.83824 -0.44500
C 	C 	0.02325 0.14353 0.77271 0.26900
C 	C 	0.99738 0.24871 0.75877 0.29600
O 	O 	0.94122 0.18410 0.88641 -0.45700
O 	O 	0.98479 0.24344 0.69668 -0.29500
O 	O 	0.98056 0.22949 0.80441 -0.54800
C 	C 	0.92707 0.15063 0.87644 0.28000
O 	O 	0.92263 0.13960 0.81344 -0.40700
Cd	Cd	0.90006 0.06909 0.54813 1.23500
Cd	Cd	0.96808 0.06883 0.41649 1.17800
O 	O 	0.84271 0.10555 0.52836 -0.32400
O 	O 	0.84777 0.06963 0.61654 -0.37700
C 	C 	0.82709 0.09273 0.58234 0.27700
O 	O 	0.94302 0.02660 0.57994 -0.41600
O 	O 	0.99078 0.05230 0.51810 -0.43300
C 	C 	0.97764 0.02490 0.55472 0.28600
C 	C 	0.88797 0.02199 0.43085 0.28900
O 	O 	0.94093 0.11703 0.48139 -0.45200
O 	O 	0.86563 0.01312 0.48042 -0.32500
O 	O 	0.90754 0.05242 0.44108 -0.53500
C 	C 	0.95318 0.13041 0.53964 0.30000
O 	O 	0.93755 0.11667 0.59335 -0.37100
C 	C 	0.73798 0.14010 0.77728 0.11000
N 	N 	0.71700 0.11249 0.74646 -0.13900
C 	C 	0.68995 0.09448 0.78193 0.12600
N 	N 	0.68409 0.10395 0.84822 -0.14300
C 	C 	0.70516 0.13118 0.87940 0.12300
N 	N 	0.73201 0.14933 0.84376 -0.14100
C 	C 	0.68424 0.08477 0.48737 0.11000
N 	N 	0.65662 0.05903 0.49626 -0.14300
C 	C 	0.63768 0.04411 0.44193 0.12500
N 	N 	0.64440 0.05707 0.37899 -0.14400
C 	C 	0.67101 0.08390 0.37007 0.12700
N 	N 	0.69081 0.09777 0.42429 -0.14000
Cd	Cd	0.12695 0.12738 0.33043 1.23900
Cd	Cd	0.11380 0.07439 0.47908 1.17600
O 	O 	0.18406 0.16657 0.32429 -0.32300
O 	O 	0.14238 0.16421 0.24215 -0.36200
C 	C 	0.17176 0.18121 0.26883 0.27100
O 	O 	0.07733 0.08960 0.30420 -0.38300
O 	O 	0.06226 0.08365 0.41556 -0.45600
C 	C 	0.06017 0.07104 0.35240 0.24800
C 	C 	0.16588 0.05820 0.34202 0.29900
O 	O 	0.12092 0.13785 0.46306 -0.45400
O 	O 	0.16912 0.07104 0.28077 -0.30100
O 	O 	0.15234 0.08188 0.38691 -0.53000
C 	C 	0.09361 0.16136 0.45141 0.29700
O 	O 	0.08857 0.16934 0.38789 -0.37200
Cd	Cd	0.16633 0.22158 0.01504 1.24000
Cd	Cd	0.16478 0.18455 0.84684 1.17700
O 	O 	0.20701 0.27592 0.03981 -0.32200
O 	O 	0.16632 0.25614 0.11406 -0.35800
C 	C 	0.19109 0.28149 0.09843 0.27400
O 	O 	0.12061 0.17768 0.01394 -0.39600
O 	O 	0.14435 0.14326 0.92308 -0.42000
C 	C 	0.11898 0.14815 0.97151 0.26300
C 	C 	0.12301 0.25926 0.91547 0.29300
O 	O 	0.21341 0.19238 0.92550 -0.45500
O 	O 	0.11435 0.27067 0.97684 -0.33200
O 	O 	0.15175 0.23669 0.91108 -0.54500
C 	C 	0.22342 0.16863 0.97138 0.28200
O 	O 	0.21030 0.17536 0.03220 -0.35200
C 	C 	0.17421 0.42242 0.03757 0.11500
N 	N 	0.18736 0.41533 0.97381 -0.14400
C 	C 	0.17424 0.43521 0.92106 0.12500
N 	N 	0.15018 0.46417 0.93287 -0.14200
C 	C 	0.13826 0.47246 0.99692 0.10900
N 	N 	0.14973 0.45115 0.04904 -0.13900
C 	C 	0.18573 0.33646 0.32494 0.11000
N 	N 	0.17329 0.36637 0.29008 -0.14000
C 	C 	0.17038 0.40057 0.32166 0.12600
N 	N 	0.17957 0.40464 0.38831 -0.14400
C 	C 	0.19036 0.37457 0.42413 0.12700
N 	N 	0.19408 0.34061 0.39210 -0.14100
Cd	Cd	0.20875 0.99014 0.72706 1.23800
Cd	Cd	0.15335 0.01107 0.87472 1.17700
O 	O 	0.24293 0.93026 0.72424 -0.32400
O 	O 	0.24580 0.96865 0.63984 -0.36500
C 	C 	0.25911 0.93864 0.66758 0.27400
O 	O 	0.17564 0.04113 0.69913 -0.40200
O 	O 	0.16599 0.05973 0.80972 -0.42500
C 	C 	0.15629 0.06050 0.74538 0.28200
C 	C 	0.13596 0.95740 0.73935 0.29700
O 	O 	0.21723 0.00068 0.85915 -0.45300
O 	O 	0.14938 0.95155 0.67821 -0.30300
O 	O 	0.16007 0.97041 0.78385 -0.53800
C 	C 	0.24246 0.02614 0.84587 0.29800
O 	O 	0.25285 0.02717 0.78259 -0.36700
Cd	Cd	0.15105 0.85244 0.51456 1.23900
Cd	Cd	0.08717 0.87181 0.37969 1.17100
O 	O 	0.20409 0.81128 0.48361 -0.32600
O 	O 	0.20237 0.84137 0.58177 -0.35400
C 	C 	0.22199 0.82074 0.53900 0.27000
O 	O 	0.11221 0.89724 0.55804 -0.37200
O 	O 	0.06372 0.88364 0.48346 -0.42700
C 	C 	0.07887 0.90547 0.53121 0.27300
C 	C 	0.17145 0.90678 0.41788 0.30300
O 	O 	0.10597 0.81637 0.42951 -0.45300
O 	O 	0.19422 0.90763 0.46994 -0.30200
O 	O 	0.14776 0.87897 0.41597 -0.54400
C 	C 	0.09037 0.80069 0.48155 0.29000
O 	O 	0.10669 0.80728 0.54010 -0.36200
C 	C 	0.40812 0.91396 0.73773 0.11200
N 	N 	0.44114 0.92910 0.71655 -0.14200
C 	C 	0.47123 0.93170 0.75947 0.12400
N 	N 	0.46827 0.91899 0.82361 -0.14300
C 	C 	0.43492 0.90488 0.84550 0.12600
N 	N 	0.40517 0.90188 0.80217 -0.14100
C 	C 	0.37038 0.84043 0.44295 0.11100
N 	N 	0.40159 0.85350 0.47620 -0.14300
C 	C 	0.43031 0.86891 0.44107 0.12800
N 	N 	0.42854 0.86967 0.37241 -0.14400
C 	C 	0.39827 0.85512 0.33864 0.12700
N 	N 	0.36926 0.84010 0.37390 -0.14100
C 	C 	0.43029 0.89428 0.91704 -0.05000
C 	C 	0.43764 0.92013 0.97152 0.09300
C 	C 	0.43273 0.90880 0.03859 -0.08000
C 	C 	0.41723 0.87363 0.05216 0.00300
C 	C 	0.40810 0.84847 0.99766 0.05300
C 	C 	0.41579 0.85867 0.93078 -0.05000
N 	N 	0.44756 0.95622 0.95992 -0.20200
H 	H 	0.43936 0.92812 0.08039 0.05400
C 	C 	0.40935 0.86420 0.12369 -0.00800
N 	N 	0.39187 0.81467 0.00907 -0.18500
H 	H 	0.40968 0.83908 0.88911 0.04700
C 	C 	0.37840 0.88101 0.15670 -0.08500
C 	C 	0.37289 0.87701 0.22671 0.09900
C 	C 	0.39797 0.85422 0.26368 -0.04900
C 	C 	0.42719 0.83514 0.22941 -0.05300
C 	C 	0.43383 0.84069 0.16022 0.07100
H 	H 	0.35939 0.89854 0.12834 0.05400
N 	N 	0.34421 0.89591 0.25816 -0.20000
H 	H 	0.44611 0.81741 0.25759 0.04800
N 	N 	0.46404 0.82389 0.12963 -0.19500
H 	H 	0.32585 0.91248 0.23025 0.08300
H 	H 	0.33999 0.89479 0.31036 0.09400
H 	H 	0.48181 0.80645 0.15701 0.08300
H 	H 	0.47042 0.82810 0.07880 0.09000
H 	H 	0.38572 0.79611 0.96857 0.07700
H 	H 	0.38473 0.80663 0.05785 0.08800
H 	H 	0.44522 0.96747 0.91185 0.09200
H 	H 	0.45522 0.97429 0.00030 0.08900
C 	C 	0.31501 0.86547 0.50591 -0.03900
C 	C 	0.33547 0.83451 0.48107 -0.00500
C 	C 	0.32104 0.79830 0.48856 -0.04100
C 	C 	0.28519 0.79331 0.51682 0.00200
C 	C 	0.26324 0.82456 0.53625 -0.06800
C 	C 	0.27890 0.86057 0.53257 0.00100
H 	H 	0.32625 0.89353 0.50131 0.04500
H 	H 	0.33694 0.77415 0.47040 0.04400
H 	H 	0.27341 0.76535 0.51907 0.03400
H 	H 	0.26197 0.88496 0.54551 0.04900
C 	C 	0.31039 0.89181 0.67705 0.00300
C 	C 	0.29871 0.92733 0.65654 -0.07200
C 	C 	0.32620 0.95484 0.64483 -0.00100
C 	C 	0.36363 0.94918 0.66514 -0.04400
C 	C 	0.37405 0.91541 0.69475 -0.00500
C 	C 	0.34802 0.88576 0.69530 -0.04000
H 	H 	0.28975 0.86984 0.68410 0.04300
H 	H 	0.31792 0.98198 0.62666 0.03700
H 	H 	0.38363 0.97210 0.66303 0.04100
H 	H 	0.35616 0.85898 0.71530 0.04600
C 	C 	0.18261 0.42283 0.85061 -0.05000
C 	C 	0.17258 0.38645 0.82581 0.10000
C 	C 	0.18066 0.37600 0.75824 -0.08600
C 	C 	0.19528 0.40210 0.71347 -0.00700
C 	C 	0.20548 0.43838 0.73819 0.07000
C 	C 	0.19944 0.44819 0.80683 -0.05400
N 	N 	0.15359 0.36214 0.86532 -0.19900
H 	H 	0.17302 0.34821 0.73915 0.05100
C 	C 	0.19432 0.39297 0.63962 -0.00500
N 	N 	0.22084 0.46393 0.69640 -0.19400
H 	H 	0.20730 0.47592 0.82593 0.04700
C 	C 	0.15996 0.39609 0.60474 -0.08700
C 	C 	0.15752 0.38713 0.53517 0.10200
C 	C 	0.19069 0.37733 0.49888 -0.05100
C 	C 	0.22488 0.37311 0.53395 -0.05300
C 	C 	0.22695 0.38032 0.60439 0.06700
H 	H 	0.13483 0.40481 0.63221 0.05500
N 	N 	0.12318 0.38704 0.50390 -0.19900
H 	H 	0.25009 0.36485 0.50627 0.04600
N 	N 	0.26027 0.37544 0.63756 -0.19500
H 	H 	0.09914 0.39609 0.53022 0.08400
H 	H 	0.11966 0.37620 0.45455 0.09100
H 	H 	0.28428 0.36650 0.61100 0.08100
H 	H 	0.26266 0.38011 0.68989 0.08600
H 	H 	0.22780 0.49079 0.71492 0.08200
H 	H 	0.22644 0.45736 0.64552 0.08800
H 	H 	0.14126 0.37084 0.91108 0.09500
H 	H 	0.14884 0.33457 0.84820 0.08800
C 	C 	0.26175 0.12618 0.89738 -0.03000
C 	C 	0.23633 0.13092 0.95121 -0.07900
C 	C 	0.21953 0.09936 0.97954 -0.02600
C 	C 	0.22468 0.06393 0.94923 -0.01100
C 	C 	0.24660 0.05986 0.89025 -0.09400
C 	C 	0.26733 0.09069 0.86766 -0.00300
H 	H 	0.27587 0.15022 0.87663 0.02700
H 	H 	0.20048 0.10257 0.02219 0.05100
H 	H 	0.20972 0.04015 0.96906 -0.02000
H 	H 	0.28591 0.08762 0.82434 0.03700
C 	C 	0.22007 0.34320 0.12216 0.00600
C 	C 	0.18823 0.31993 0.12621 -0.06700
C 	C 	0.15242 0.33670 0.13026 0.00700
C 	C 	0.14799 0.37390 0.11139 -0.03800
C 	C 	0.17944 0.39408 0.08919 -0.00300
C 	C 	0.21574 0.38006 0.10145 -0.03900
H 	H 	0.24814 0.33126 0.12482 0.03600
H 	H 	0.12759 0.31972 0.13883 0.03800
H 	H 	0.11983 0.38538 0.10640 0.04500
H 	H 	0.24044 0.39633 0.08867 0.04400
C 	C 	0.13474 0.00200 0.38874 -0.00100
C 	C 	0.16478 0.01761 0.35301 -0.10700
C 	C 	0.19336 0.99421 0.32705 -0.01300
C 	C 	0.19339 0.95606 0.34166 -0.00500
C 	C 	0.16436 0.94101 0.38100 -0.11800
C 	C 	0.13387 0.96371 0.40051 -0.03700
H 	H 	0.11270 0.01962 0.40914 -0.06600
H 	H 	0.21635 0.00579 0.29814 0.04000
H 	H 	0.21704 0.93871 0.32586 0.02700
H 	H 	0.11102 0.95231 0.42991 -0.00800
C 	C 	0.14479 0.24510 0.25968 0.01000
C 	C 	0.17680 0.22181 0.26041 -0.06700
C 	C 	0.21259 0.23797 0.27152 0.00700
C 	C 	0.21586 0.27618 0.28870 -0.04100
C 	C 	0.18346 0.29862 0.29372 -0.00000
C 	C 	0.14814 0.28329 0.27633 -0.03800
H 	H 	0.11701 0.23321 0.25055 0.03600
H 	H 	0.23756 0.22046 0.27147 0.03800
H 	H 	0.24338 0.28794 0.30081 0.04400
H 	H 	0.12301 0.30055 0.27898 0.04300
C 	C 	0.61154 0.01239 0.45059 -0.04800
C 	C 	0.62071 0.98250 0.49350 0.09500
C 	C 	0.59290 0.95608 0.50871 -0.08900
C 	C 	0.55826 0.95568 0.47420 -0.00500
C 	C 	0.55044 0.98347 0.42619 0.06700
C 	C 	0.57656 0.01244 0.41706 -0.05100
N 	N 	0.65662 0.97761 0.51626 -0.19800
H 	H 	0.59936 0.93392 0.54323 0.05200
C 	C 	0.53001 0.92657 0.48948 -0.00600
N 	N 	0.51829 0.98217 0.38811 -0.19600
H 	H 	0.56977 0.03488 0.38317 0.05000
C 	C 	0.49723 0.93721 0.52467 -0.08500
C 	C 	0.46390 0.91619 0.51648 0.10200
C 	C 	0.46457 0.88262 0.47632 -0.05200
C 	C 	0.49943 0.86810 0.45477 -0.05200
C 	C 	0.53205 0.89040 0.45842 0.06900
H 	H 	0.49665 0.96371 0.55295 0.05500
N 	N 	0.43128 0.92917 0.54467 -0.19900
H 	H 	0.50035 0.84109 0.42822 0.04700
N 	N 	0.56462 0.87758 0.42965 -0.19400
H 	H 	0.43076 0.95514 0.57046 0.08800
H 	H 	0.40656 0.91330 0.54332 0.09800
H 	H 	0.56551 0.85113 0.40559 0.08100
H 	H 	0.58941 0.89338 0.43141 0.08500
H 	H 	0.51214 0.00359 0.35476 0.08700
H 	H 	0.49993 0.95930 0.38895 0.09100
H 	H 	0.67941 0.99094 0.49366 0.08600
H 	H 	0.66246 0.95760 0.55249 0.07800
C 	C 	0.50488 0.95322 0.74013 -0.04600
C 	C 	0.50636 0.99261 0.75050 0.08700
C 	C 	0.54037 0.01171 0.73923 -0.07200
C 	C 	0.57284 0.99227 0.71782 -0.01600
C 	C 	0.57069 0.95317 0.70368 0.07200
C 	C 	0.53666 0.93403 0.71515 -0.05600
N 	N 	0.47549 0.01217 0.77219 -0.19400
H 	H 	0.54193 0.04168 0.74944 0.05100
C 	C 	0.60974 0.01229 0.71915 -0.00100
N 	N 	0.60116 0.93388 0.67963 -0.19500
H 	H 	0.53514 0.90399 0.70567 0.04800
C 	C 	0.63613 0.00399 0.76977 -0.08300
C 	C 	0.66658 0.02822 0.78384 0.09900
C 	C 	0.66888 0.06269 0.75051 -0.05000
C 	C 	0.64527 0.06888 0.69463 -0.05300
C 	C 	0.61610 0.04342 0.67766 0.07100
H 	H 	0.63233 0.97923 0.79959 0.05100
N 	N 	0.69350 0.01833 0.82927 -0.19600
H 	H 	0.64845 0.09426 0.66628 0.05100
N 	N 	0.59415 0.04913 0.62221 -0.19300
H 	H 	0.69082 0.99361 0.85600 0.08000
H 	H 	0.71818 0.03412 0.83590 0.09000
H 	H 	0.59768 0.07312 0.59377 0.09000
H 	H 	0.57441 0.02914 0.60541 0.09100
H 	H 	0.59974 0.90485 0.67162 0.08000
H 	H 	0.62592 0.94761 0.66595 0.08200
H 	H 	0.44961 0.99901 0.78027 0.08600
H 	H 	0.47705 0.04117 0.78058 0.08200
C 	C 	0.70265 0.13703 0.95381 -0.04400
C 	C 	0.66715 0.14076 0.98616 0.08800
C 	C 	0.66452 0.13562 0.05636 -0.07200
C 	C 	0.69702 0.12942 0.09531 -0.01300
C 	C 	0.73299 0.13018 0.06412 0.08300
C 	C 	0.73541 0.13335 0.99338 -0.06700
N 	N 	0.63576 0.14999 0.95042 -0.19700
H 	H 	0.63709 0.13631 0.08068 0.05300
C 	C 	0.69280 0.11866 0.16712 -0.00200
N 	N 	0.76518 0.12784 0.10165 -0.19600
H 	H 	0.76277 0.13159 0.96890 0.05100
C 	C 	0.69744 0.08098 0.18357 -0.08700
C 	C 	0.69283 0.06949 0.25055 0.10200
C 	C 	0.68052 0.09575 0.30099 -0.05000
C 	C 	0.67635 0.13353 0.28480 -0.05200
C 	C 	0.68307 0.14542 0.21854 0.06800
H 	H 	0.70548 0.06066 0.14433 0.05700
N 	N 	0.70146 0.03366 0.26647 -0.19900
H 	H 	0.66774 0.15375 0.32381 0.04800
N 	N 	0.68057 0.18248 0.20493 -0.19400
H 	H 	0.70881 0.01406 0.22840 0.08600
H 	H 	0.70304 0.02544 0.31676 0.09300
H 	H 	0.67253 0.20190 0.24282 0.08300
H 	H 	0.68751 0.19254 0.15737 0.08800
H 	H 	0.79156 0.12707 0.07801 0.08800
H 	H 	0.76443 0.12805 0.15458 0.08900
H 	H 	0.63754 0.15805 0.90004 0.09100
H 	H 	0.60936 0.15108 0.97397 0.08200
C 	C 	0.02058 0.13132 0.57202 -0.02200
C 	C 	0.98954 0.14972 0.54408 -0.08400
C 	C 	0.99562 0.18128 0.50494 -0.01400
C 	C 	0.03208 0.18978 0.48344 -0.00500
C 	C 	0.06218 0.16601 0.49958 -0.09700
C 	C 	0.05705 0.13977 0.55047 -0.00800
H 	H 	0.01615 0.10760 0.60386 0.04100
H 	H 	0.97184 0.19696 0.48590 0.03700
H 	H 	0.03621 0.21217 0.44826 0.03800
H 	H 	0.08056 0.12310 0.56767 -0.03200
C 	C 	0.04284 0.00139 0.57740 0.00500
C 	C 	0.00365 0.99463 0.57460 -0.11100
C 	C 	0.99051 0.95763 0.57685 -0.00700
C 	C 	0.01604 0.92776 0.57170 -0.03400
C 	C 	0.05488 0.93469 0.56346 -0.05800
C 	C 	0.06836 0.97152 0.57093 -0.04100
H 	H 	0.05345 0.02986 0.57781 -0.01200
H 	H 	0.96045 0.95190 0.57708 0.00600
H 	H 	0.00535 0.89931 0.56885 0.02700
H 	H 	0.09829 0.97730 0.56633 0.02400
C 	C 	0.76775 0.12843 0.57153 0.00900
C 	C 	0.78607 0.09569 0.59167 -0.07200
C 	C 	0.76460 0.06321 0.60089 0.00600
C 	C 	0.72757 0.06128 0.57608 -0.04100
C 	C 	0.71239 0.09172 0.54142 -0.00300
C 	C 	0.73094 0.12641 0.54603 -0.04000
H 	H 	0.78338 0.15444 0.56861 0.04000
H 	H 	0.77771 0.03834 0.62050 0.03500
H 	H 	0.71230 0.03503 0.57765 0.04500
H 	H 	0.71842 0.15085 0.52370 0.04500
C 	C 	0.09321 0.14181 0.76538 -0.04200
C 	C 	0.05833 0.12510 0.74986 -0.07500
C 	C 	0.05740 0.08955 0.71758 -0.01700
C 	C 	0.09122 0.07054 0.70324 -0.03400
C 	C 	0.12581 0.08581 0.72542 -0.09900
C 	C 	0.12679 0.12291 0.75026 -0.00800
H 	H 	0.09425 0.16830 0.79304 -0.04100
H 	H 	0.03062 0.07589 0.70665 0.01300
H 	H 	0.09023 0.04245 0.68126 0.02100
H 	H 	0.15353 0.13557 0.76454 -0.07500
C 	C 	0.06701 0.24349 0.75571 -0.04700
C 	C 	0.03482 0.26465 0.77293 -0.10000
C 	C 	0.03797 0.29309 0.82307 -0.04000
C 	C 	0.06968 0.29462 0.86540 -0.01500
C 	C 	0.09850 0.26789 0.85707 -0.13700
C 	C 	0.09909 0.24541 0.79759 -0.00500
H 	H 	0.06577 0.22286 0.71438 0.03500
H 	H 	0.01407 0.31112 0.83437 0.02600
H 	H 	0.07037 0.31452 0.90790 0.02900
H 	H 	0.12322 0.22789 0.78591 -0.07000
C 	C 	0.80722 0.20646 0.69826 0.00200
C 	C 	0.84005 0.18440 0.69618 -0.07000
C 	C 	0.83799 0.14683 0.71529 0.00200
C 	C 	0.80423 0.13208 0.73946 -0.04100
C 	C 	0.77180 0.15436 0.74348 -0.00300
C 	C 	0.77316 0.19145 0.72173 -0.04400
H 	H 	0.80845 0.23563 0.68472 0.03500
H 	H 	0.86318 0.12963 0.71521 0.03000
H 	H 	0.80353 0.10352 0.75656 0.04300
H 	H 	0.74824 0.20898 0.72499 0.04300
C 	C 	0.04089 0.58535 0.19006 -0.04900
C 	C 	0.03148 0.54910 0.16426 0.09700
C 	C 	0.05757 0.51977 0.17077 -0.08200
C 	C 	0.09096 0.52531 0.20838 -0.00500
C 	C 	0.10167 0.56216 0.22912 0.06900
C 	C 	0.07689 0.59196 0.21770 -0.05200
N 	N 	0.99708 0.54194 0.13577 -0.19800
H 	H 	0.05033 0.49184 0.15189 0.05500
C 	C 	0.11060 0.49222 0.23561 -0.00400
N 	N 	0.13499 0.56897 0.26188 -0.19500
H 	H 	0.08458 0.62007 0.23494 0.04300
C 	C 	0.14559 0.48124 0.20838 -0.08400
C 	C 	0.16626 0.45199 0.23700 0.10200
C 	C 	0.14962 0.43079 0.28866 -0.05000
C 	C 	0.11367 0.44039 0.31301 -0.05200
C 	C 	0.09473 0.47191 0.28930 0.07000
H 	H 	0.15783 0.49701 0.16773 0.05700
N 	N 	0.20243 0.44557 0.21680 -0.19900
H 	H 	0.10112 0.42423 0.35291 0.04600
N 	N 	0.06194 0.48309 0.31951 -0.19400
H 	H 	0.21455 0.46163 0.17905 0.08600
H 	H 	0.21893 0.42478 0.23831 0.09200
H 	H 	0.04981 0.46710 0.35735 0.08200
H 	H 	0.04899 0.50838 0.30802 0.08900
H 	H 	0.14241 0.59627 0.27724 0.08100
H 	H 	0.15384 0.54750 0.27251 0.08700
H 	H 	0.97637 0.56263 0.13335 0.08800
H 	H 	0.99065 0.51523 0.11587 0.08400
C 	C 	0.10934 0.50140 0.00812 -0.02900
C 	C 	0.07287 0.49683 0.97967 0.08400
C 	C 	0.05021 0.52842 0.97031 -0.07700
C 	C 	0.06289 0.56407 0.99156 -0.02200
C 	C 	0.09641 0.56753 0.03059 0.08700
C 	C 	0.11992 0.53617 0.03713 -0.06500
N 	N 	0.05967 0.46226 0.96096 -0.19700
H 	H 	0.02333 0.52548 0.94413 0.04900
C 	C 	0.04324 0.59750 0.96609 0.00700
N 	N 	0.10640 0.60086 0.06058 -0.19600
H 	H 	0.14708 0.53919 0.06232 0.04900
C 	C 	0.00655 0.60537 0.98882 -0.10700
C 	C 	0.98516 0.63392 0.95998 0.11400
C 	C 	0.00176 0.65642 0.91013 -0.06100
C 	C 	0.03900 0.64960 0.88945 -0.04800
C 	C 	0.05943 0.61940 0.91480 0.06300
H 	H 	0.99389 0.58800 0.02663 0.06900
N 	N 	0.94842 0.63857 0.97849 -0.20600
H 	H 	0.05159 0.66690 0.85122 0.04600
N 	N 	0.09390 0.61090 0.88815 -0.19300
H 	H 	0.93674 0.62225 0.01630 0.08900
H 	H 	0.93093 0.65788 0.95513 0.09100
H 	H 	0.10614 0.62815 0.85232 0.08200
H 	H 	0.10816 0.58642 0.90022 0.08800
H 	H 	0.13184 0.60351 0.08736 0.08400
H 	H 	0.08821 0.62386 0.06036 0.09300
H 	H 	0.07484 0.43806 0.97177 0.08600
H 	H 	0.03322 0.45919 0.93770 0.08000
C 	C 	0.95144 0.70773 0.70122 -0.05100
C 	C 	0.96928 0.73368 0.65848 0.10100
C 	C 	0.96763 0.72778 0.58784 -0.09000
C 	C 	0.95158 0.69501 0.55946 -0.00300
C 	C 	0.93321 0.66940 0.60194 0.06800
C 	C 	0.93255 0.67658 0.67231 -0.05300
N 	N 	0.98945 0.76323 0.68471 -0.19900
H 	H 	0.98122 0.74751 0.55502 0.06000
C 	C 	0.95857 0.68562 0.48689 -0.00700
N 	N 	0.91670 0.63769 0.57577 -0.19400
H 	H 	0.91857 0.65698 0.70498 0.04700
C 	C 	0.99455 0.67309 0.46744 -0.07700
C 	C 	0.00296 0.66566 0.39895 0.09300
C 	C 	0.97353 0.66637 0.35007 -0.04700
C 	C 	0.93762 0.67937 0.36931 -0.05500
C 	C 	0.93020 0.69024 0.43700 0.07000
H 	H 	0.01663 0.67093 0.50541 0.05200
N 	N 	0.03953 0.66039 0.38001 -0.19800
H 	H 	0.91541 0.68115 0.33152 0.04900
N 	N 	0.89589 0.70488 0.45370 -0.19500
H 	H 	0.06061 0.65723 0.41665 0.08300
H 	H 	0.04788 0.66289 0.32964 0.08900
H 	H 	0.87495 0.70763 0.41668 0.08000
H 	H 	0.88984 0.71426 0.50308 0.08300
H 	H 	0.90336 0.61893 0.60765 0.08200
H 	H 	0.91685 0.63130 0.52382 0.08800
H 	H 	0.99545 0.76600 0.73641 0.09400
H 	H 	0.00108 0.78296 0.65263 0.08300
C 	C 	0.07314 0.05223 0.96226 -0.03300
C 	C 	0.03750 0.06013 0.98985 -0.07800
C 	C 	0.03127 0.09516 0.02229 -0.01100
C 	C 	0.05858 0.12353 0.01944 -0.02200
C 	C 	0.09287 0.11677 0.98577 -0.08000
C 	C 	0.10072 0.08036 0.96020 -0.02000
H 	H 	0.07868 0.02509 0.93844 -0.02700
H 	H 	0.00434 0.10116 0.04603 0.02400
H 	H 	0.05232 0.15112 0.04069 0.00700
H 	H 	0.12765 0.07418 0.93655 -0.02800
C 	C 	0.91466 0.08709 0.01654 0.01300
C 	C 	0.88780 0.06400 0.98331 -0.10200
C 	C 	0.86213 0.08061 0.93911 -0.02000
C 	C 	0.87095 0.11527 0.91226 -0.02400
C 	C 	0.90550 0.13249 0.92961 -0.08600
C 	C 	0.92424 0.12134 0.98832 -0.04000
H 	H 	0.93223 0.07601 0.05632 0.03600
H 	H 	0.83875 0.06444 0.91798 0.02900
H 	H 	0.85392 0.12591 0.87132 0.03700
H 	H 	0.94906 0.13639 0.00637 0.01700
C 	C 	0.04163 0.99177 0.80361 -0.02200
C 	C 	0.01929 0.95988 0.79149 -0.12700
C 	C 	0.03312 0.93103 0.74853 0.00300
C 	C 	0.07112 0.93075 0.72941 -0.00500
C 	C 	0.09506 0.95995 0.75127 -0.10600
C 	C 	0.07984 0.99114 0.78639 -0.02500
H 	H 	0.03059 0.01529 0.83315 -0.02300
H 	H 	0.01554 0.90691 0.73611 0.02700
H 	H 	0.08229 0.90698 0.70066 0.04400
H 	H 	0.09770 0.01440 0.80190 -0.05100
C 	C 	0.97021 0.83884 0.96128 0.00600
C 	C 	0.93350 0.85160 0.97576 -0.06400
C 	C 	0.90251 0.82804 0.96138 0.00100
C 	C 	0.90810 0.79274 0.93043 -0.04300
C 	C 	0.94469 0.78070 0.91408 -0.00500
C 	C 	0.97574 0.80357 0.93065 -0.03800
H 	H 	0.99436 0.85683 0.97145 0.04400
H 	H 	0.87405 0.83765 0.97187 0.03600
H 	H 	0.88399 0.77498 0.91851 0.04100
H 	H 	0.00413 0.79426 0.91873 0.04000
C 	C 	0.02279 0.97362 0.38178 -0.04800
C 	C 	0.01448 0.96030 0.31586 -0.10100
C 	C 	0.02180 0.98344 0.26061 -0.03200
C 	C 	0.03647 0.01978 0.27186 -0.01500
C 	C 	0.04383 0.03317 0.33838 -0.13000
C 	C 	0.03687 0.00969 0.39289 -0.05400
H 	H 	0.01819 0.95605 0.42482 0.01900
H 	H 	0.01546 0.97371 0.20930 0.03800
H 	H 	0.04172 0.03740 0.22910 0.03400
H 	H 	0.04384 0.01891 0.44396 -0.00200
C 	C 	0.85544 0.95422 0.29355 -0.04500
C 	C 	0.88837 0.95086 0.25471 -0.09800
C 	C 	0.91681 0.97809 0.26293 -0.04500
C 	C 	0.91593 0.00332 0.31857 -0.00100
C 	C 	0.88542 0.00272 0.36381 -0.12500
C 	C 	0.85394 0.98004 0.34799 -0.02200
H 	H 	0.83255 0.93436 0.28585 0.02400
H 	H 	0.94140 0.97716 0.23048 0.03900
H 	H 	0.93986 0.02160 0.32856 -0.06000
H 	H 	0.82924 0.98078 0.38028 0.03100
C 	C 	0.00889 0.76581 0.38837 -0.00700
C 	C 	0.98644 0.79764 0.40068 -0.10400
C 	C 	0.99034 0.81716 0.46305 -0.00800
C 	C 	0.02260 0.81138 0.50257 -0.03300
C 	C 	0.05117 0.78770 0.47727 -0.08300
C 	C 	0.04172 0.76101 0.42658 -0.02200
H 	H 	0.00411 0.74829 0.34337 0.03900
H 	H 	0.97138 0.84000 0.47624 -0.01800
H 	H 	0.02774 0.82909 0.54716 0.04200
H 	H 	0.06220 0.74011 0.41039 0.03400
C 	C 	0.00193 0.72086 0.09432 -0.04700
C 	C 	0.97333 0.69541 0.11041 0.00300
C 	C 	0.93571 0.70472 0.09588 -0.04100
C 	C 	0.92634 0.74181 0.08230 0.00900
C 	C 	0.95456 0.76948 0.08481 -0.07100
C 	C 	0.99255 0.75808 0.08151 0.01200
H 	H 	0.03132 0.71319 0.10044 0.04400
H 	H 	0.91341 0.68447 0.10336 0.04200
H 	H 	0.89689 0.74972 0.07855 0.03800
H 	H 	0.01486 0.77863 0.07696 0.03300
