data_crystal

_cell_length_a 15.75848
_cell_length_b 18.11593
_cell_length_c 49.61112
_cell_angle_alpha 90.49696
_cell_angle_beta  90.84553
_cell_angle_gamma 110.73896

_symmetry_space_group_name_	'P 1'
_symmetry_space_group_name_H-M	'P 1'

loop_
_symmetry_equiv_pos_as_xyz
  x,y,z

loop_
_atom_site_label
_atom_site_type_symbol
_atom_site_fract_x
_atom_site_fract_y
_atom_site_fract_z
_atom_site_charge
Ni	Ni	0.61098 0.22530 0.85915 1.09700
O 	O 	0.66573 0.25456 0.89715 -0.70900
Ni	Ni	0.67602 0.36752 0.90035 1.09600
O 	O 	0.61356 0.11270 0.86181 -0.36400
O 	O 	0.76383 0.16222 0.87189 -0.40100
O 	O 	0.48651 0.18123 0.87640 -0.37900
Ni	Ni	0.78880 0.25289 0.90026 1.06900
O 	O 	0.50662 0.30636 0.81584 -0.41200
O 	O 	0.83948 0.32525 0.86840 -0.40800
O 	O 	0.72532 0.38548 0.93886 -0.38500
O 	O 	0.63133 0.34222 0.86142 -0.70000
O 	O 	0.54991 0.19984 0.82192 -0.37800
O 	O 	0.66601 0.47706 0.89937 -0.38100
O 	O 	0.51678 0.43114 0.88633 -0.41400
Ni	Ni	0.52198 0.36607 0.85171 1.06800
H 	H 	0.62642 0.22238 0.91129 0.15600
H 	H 	0.67911 0.37033 0.84862 0.15100
C 	C 	0.84359 0.39853 0.86872 0.28800
O 	O 	0.42474 0.27472 0.86950 -0.39400
C 	C 	0.68763 0.10141 0.87010 0.27000
C 	C 	0.79782 0.36911 0.94591 0.29900
C 	C 	0.44602 0.22747 0.88575 0.29200
C 	C 	0.58742 0.48628 0.89762 0.29800
C 	C 	0.48763 0.22919 0.81471 0.29500
O 	O 	0.80627 0.42458 0.88819 -0.36900
O 	O 	0.84298 0.34410 0.92770 -0.39800
Ni	Ni	0.57491 0.34933 0.63065 1.10000
O 	O 	0.47950 0.28150 0.65603 -0.70900
Ni	Ni	0.53548 0.20349 0.66776 1.10000
O 	O 	0.48680 0.39185 0.61107 -0.38200
O 	O 	0.38736 0.26722 0.60234 -0.42100
O 	O 	0.60855 0.44398 0.65752 -0.37100
Ni	Ni	0.35827 0.22449 0.64127 1.06900
O 	O 	0.77878 0.44630 0.64308 -0.41100
O 	O 	0.36615 0.11863 0.62952 -0.39800
O 	O 	0.42531 0.12247 0.68628 -0.37400
O 	O 	0.63822 0.28110 0.64626 -0.70200
O 	O 	0.67775 0.41427 0.60718 -0.38600
O 	O 	0.62003 0.14966 0.68331 -0.36400
O 	O 	0.72319 0.26767 0.69798 -0.40400
Ni	Ni	0.74287 0.34819 0.66702 1.06700
H 	H 	0.47408 0.31288 0.67186 0.15700
H 	H 	0.65836 0.25433 0.63152 0.15300
C 	C 	0.44003 0.11416 0.61926 0.31100
O 	O 	0.66911 0.39146 0.69109 -0.40700
C 	C 	0.41717 0.34331 0.59736 0.29000
C 	C 	0.34805 0.13318 0.69217 0.28800
C 	C 	0.63214 0.44173 0.68308 0.28700
C 	C 	0.69924 0.19067 0.69478 0.26400
C 	C 	0.76132 0.44636 0.61684 0.30200
O 	O 	0.51445 0.13294 0.63394 -0.38600
O 	O 	0.31764 0.18161 0.67836 -0.41200
Ni	Ni	0.83235 0.76517 0.80071 1.09900
O 	O 	0.93981 0.85188 0.81841 -0.69700
Ni	Ni	0.94224 0.94751 0.79827 1.09900
O 	O 	0.86337 0.67721 0.81949 -0.38100
O 	O 	0.00795 0.72628 0.80351 -0.42400
O 	O 	0.75934 0.78097 0.83291 -0.37700
Ni	Ni	0.05811 0.84039 0.81944 1.06700
O 	O 	0.66494 0.75803 0.75402 -0.40000
O 	O 	0.11627 0.88267 0.78315 -0.39900
O 	O 	0.05363 0.03136 0.81671 -0.38300
O 	O 	0.83837 0.85865 0.77889 -0.69400
O 	O 	0.71780 0.68491 0.78336 -0.38200
O 	O 	0.91367 0.03562 0.77886 -0.36700
O 	O 	0.76424 0.97837 0.78864 -0.42700
Ni	Ni	0.71719 0.86398 0.77360 1.07400
H 	H 	0.92515 0.85925 0.83732 0.15300
H 	H 	0.85897 0.84964 0.76084 0.15200
C 	C 	0.10091 0.93829 0.76923 0.29700
O 	O 	0.65659 0.81489 0.80824 -0.39400
C 	C 	0.94277 0.67005 0.81544 0.28300
C 	C 	0.12365 0.01426 0.82620 0.30400
C 	C 	0.70330 0.81986 0.83058 0.28700
C 	C 	0.82941 0.03227 0.77586 0.30100
C 	C 	0.68786 0.69572 0.75916 0.27700
O 	O 	0.01860 0.93888 0.76647 -0.40600
O 	O 	0.11165 0.94698 0.83847 -0.43600
Ni	Ni	0.26094 0.86331 0.36292 1.10000
O 	O 	0.16436 0.82311 0.39193 -0.70500
Ni	Ni	0.16736 0.71618 0.39900 1.09800
O 	O 	0.21942 0.95534 0.35257 -0.37600
O 	O 	0.07205 0.87134 0.34885 -0.41700
O 	O 	0.34306 0.93265 0.39268 -0.38500
Ni	Ni	0.03922 0.81561 0.38570 1.06100
O 	O 	0.43132 0.80750 0.34462 -0.41800
O 	O 	0.97845 0.70479 0.36861 -0.36400
O 	O 	0.06002 0.67637 0.42409 -0.38400
O 	O 	0.26688 0.75746 0.37154 -0.70400
O 	O 	0.36620 0.90150 0.33638 -0.37900
O 	O 	0.20613 0.62305 0.40871 -0.38200
O 	O 	0.35097 0.70574 0.41817 -0.42000
Ni	Ni	0.38845 0.76148 0.38131 1.07000
H 	H 	0.18592 0.85478 0.40867 0.14200
H 	H 	0.24892 0.72478 0.35491 0.15800
C 	C 	0.02171 0.66492 0.35596 0.23600
O 	O 	0.44085 0.86851 0.40039 -0.40300
C 	C 	0.13290 0.94333 0.34757 0.24900
C 	C 	0.02929 0.72551 0.43687 0.28600
C 	C 	0.38906 0.90537 0.40958 0.29800
C 	C 	0.28582 0.63622 0.42025 0.28800
C 	C 	0.43839 0.87954 0.33722 0.29500
O 	O 	0.09005 0.65172 0.36772 -0.37100
O 	O 	0.99977 0.77532 0.42357 -0.39100
Ni	Ni	0.32876 0.80440 0.15372 1.09600
O 	O 	0.32014 0.87834 0.12399 -0.71100
Ni	Ni	0.43172 0.88970 0.10321 1.09900
O 	O 	0.21448 0.80965 0.17204 -0.37100
O 	O 	0.27916 0.94350 0.17516 -0.41900
O 	O 	0.24747 0.71105 0.12987 -0.37100
Ni	Ni	0.33208 0.98270 0.13768 1.05800
O 	O 	0.35709 0.64501 0.14975 -0.41100
O 	O 	0.45390 0.00011 0.15630 -0.41200
O 	O 	0.40661 0.95609 0.07355 -0.39200
O 	O 	0.44839 0.82403 0.13539 -0.69600
O 	O 	0.34115 0.72835 0.18230 -0.39200
O 	O 	0.52924 0.87490 0.07909 -0.37000
O 	O 	0.54770 0.76526 0.09581 -0.40900
Ni	Ni	0.44840 0.71918 0.12431 1.06600
H 	H 	0.26467 0.85584 0.11257 0.15300
H 	H 	0.50066 0.85268 0.14739 0.15800
C 	C 	0.52925 0.01978 0.14294 0.30700
O 	O 	0.34771 0.70950 0.09696 -0.42800
C 	C 	0.20950 0.87828 0.17896 0.27800
C 	C 	0.37787 0.01410 0.07957 0.31400
C 	C 	0.26460 0.69904 0.10449 0.29000
C 	C 	0.53492 0.80527 0.07523 0.31100
C 	C 	0.34723 0.66037 0.17528 0.28500
O 	O 	0.52955 0.99150 0.11847 -0.38100
O 	O 	0.38957 0.04484 0.10424 -0.41100
Ni	Ni	0.02115 0.30731 0.26800 1.08900
O 	O 	0.91081 0.21429 0.27771 -0.71000
Ni	Ni	0.92271 0.13222 0.25281 1.10300
O 	O 	0.98601 0.37095 0.29696 -0.36900
O 	O 	0.85207 0.35530 0.27473 -0.40300
O 	O 	0.09784 0.26838 0.29470 -0.37000
Ni	Ni	0.79913 0.23219 0.26873 1.06900
O 	O 	0.22165 0.33754 0.24947 -0.41000
O 	O 	0.82617 0.24765 0.22847 -0.40900
O 	O 	0.81747 0.04287 0.26878 -0.36200
O 	O 	0.02149 0.23176 0.23780 -0.70300
O 	O 	0.12881 0.40528 0.25910 -0.39000
O 	O 	0.96048 0.04630 0.23414 -0.34600
O 	O 	0.09118 0.12209 0.21425 -0.40600
Ni	Ni	0.14426 0.22912 0.23456 1.07000
H 	H 	0.91226 0.19906 0.29679 0.16200
H 	H 	0.00224 0.24938 0.22070 0.14900
C 	C 	0.81403 0.18649 0.21245 0.29100
O 	O 	0.13994 0.17765 0.27083 -0.39700
C 	C 	0.91545 0.39254 0.29297 0.28300
C 	C 	0.74284 0.05742 0.27443 0.26900
C 	C 	0.10468 0.19760 0.29236 0.25100
C 	C 	0.04350 0.05669 0.22633 0.27900
C 	C 	0.19815 0.39967 0.24629 0.29000
O 	O 	0.83887 0.12804 0.22037 -0.36400
O 	O 	0.72477 0.11516 0.26231 -0.39800
C 	C 	0.31027 0.59319 0.19349 -0.07100
C 	C 	0.22381 0.53545 0.18825 0.01800
C 	C 	0.19374 0.46754 0.20388 -0.02200
H 	H 	0.12741 0.42313 0.19969 0.01300
C 	C 	0.24385 0.46013 0.22655 -0.09800
C 	C 	0.32871 0.51950 0.23261 0.02800
C 	C 	0.36242 0.58480 0.21560 -0.03000
H 	H 	0.42823 0.62974 0.21993 0.03400
C 	C 	0.38045 0.51602 0.25735 0.01300
C 	C 	0.35028 0.53055 0.28264 -0.04300
C 	C 	0.40125 0.53053 0.30594 -0.01900
C 	C 	0.48280 0.51669 0.30407 -0.04100
C 	C 	0.51372 0.50328 0.27887 -0.02100
C 	C 	0.46245 0.50235 0.25555 -0.04700
C 	C 	0.15991 0.54986 0.16872 0.02700
C 	C 	0.12030 0.60622 0.17467 -0.04600
C 	C 	0.05397 0.61521 0.15737 -0.00200
C 	C 	0.02531 0.56687 0.13444 -0.05900
C 	C 	0.06368 0.50991 0.12861 -0.00700
C 	C 	0.13152 0.50186 0.14554 -0.05000
H 	H 	0.02471 0.65946 0.16180 0.03500
H 	H 	0.97374 0.57381 0.12110 0.05600
H 	H 	0.04106 0.47220 0.11093 0.02600
H 	H 	0.16094 0.45760 0.14091 0.03800
H 	H 	0.14058 0.64264 0.19275 0.05800
H 	H 	0.28753 0.54184 0.28419 0.04900
H 	H 	0.37788 0.54188 0.32540 0.02300
H 	H 	0.48680 0.49185 0.23610 0.03700
H 	H 	0.57786 0.49455 0.27739 0.02800
H 	H 	0.52230 0.51682 0.32212 0.03200
C 	C 	0.75660 0.17449 0.18777 -0.07200
C 	C 	0.67228 0.18564 0.18843 0.01900
C 	C 	0.60107 0.14050 0.17124 -0.01400
H 	H 	0.53571 0.14769 0.17225 0.03500
C 	C 	0.61150 0.08165 0.15437 -0.07600
C 	C 	0.69892 0.07764 0.15139 0.02200
C 	C 	0.77196 0.12840 0.16681 -0.01700
H 	H 	0.83843 0.12373 0.16504 0.04500
C 	C 	0.71292 0.01456 0.13504 0.03400
C 	C 	0.71271 0.94510 0.14739 -0.07300
C 	C 	0.73285 0.88784 0.13242 -0.01800
C 	C 	0.75349 0.89979 0.10513 -0.02900
C 	C 	0.75352 0.96883 0.09272 -0.02900
C 	C 	0.73377 0.02642 0.10765 -0.02400
C 	C 	0.65620 0.24099 0.20795 0.01800
C 	C 	0.69063 0.32246 0.20327 -0.04800
C 	C 	0.67806 0.37500 0.22224 -0.02100
C 	C 	0.63120 0.34646 0.24589 -0.04200
C 	C 	0.59679 0.26534 0.25063 -0.03900
C 	C 	0.60816 0.21249 0.23156 -0.07200
H 	H 	0.70484 0.43785 0.21866 0.03200
H 	H 	0.62147 0.38717 0.26048 0.03500
H 	H 	0.56140 0.24345 0.26907 0.02500
H 	H 	0.58088 0.14965 0.23527 0.05200
H 	H 	0.72769 0.34496 0.18509 0.04600
H 	H 	0.69833 0.93619 0.16862 0.04500
H 	H 	0.73301 0.83444 0.14202 0.02300
H 	H 	0.73490 0.08017 0.09801 0.05000
H 	H 	0.76904 0.97779 0.07155 0.03800
H 	H 	0.76902 0.85539 0.09356 0.04000
C 	C 	0.06732 0.98638 0.22122 -0.07500
C 	C 	0.14765 0.98032 0.23244 -0.00300
C 	C 	0.17658 0.91997 0.22328 -0.01200
H 	H 	0.23833 0.91544 0.23182 0.03800
C 	C 	0.14237 0.88161 0.19870 -0.07900
C 	C 	0.05637 0.87983 0.18960 0.02000
C 	C 	0.01799 0.93101 0.20153 -0.04700
H 	H 	0.95376 0.93243 0.19386 0.06000
C 	C 	0.00668 0.82586 0.16750 -0.00600
C 	C 	0.03520 0.84092 0.14075 -0.06500
C 	C 	0.98533 0.79170 0.11980 0.01400
C 	C 	0.90547 0.72892 0.12532 -0.04900
C 	C 	0.87539 0.71508 0.15182 -0.02400
C 	C 	0.92588 0.76324 0.17290 -0.03000
C 	C 	0.21121 0.04503 0.24910 0.02400
C 	C 	0.22052 0.03491 0.27685 -0.02400
C 	C 	0.29109 0.08991 0.29176 -0.02300
C 	C 	0.35099 0.15642 0.27925 -0.02800
C 	C 	0.34146 0.16735 0.25168 -0.03000
C 	C 	0.27275 0.11124 0.23652 -0.06300
H 	H 	0.29991 0.08054 0.31295 0.04700
H 	H 	0.40522 0.19916 0.29087 0.03100
H 	H 	0.38821 0.21864 0.24197 0.02700
H 	H 	0.26827 0.11834 0.21494 0.03300
H 	H 	0.17456 0.98378 0.28672 0.03100
H 	H 	0.09517 0.89112 0.13617 0.01300
H 	H 	0.00812 0.80271 0.09926 0.00500
H 	H 	0.90213 0.75218 0.19338 0.03900
H 	H 	0.81324 0.66677 0.15603 0.02700
H 	H 	0.86677 0.69112 0.10907 0.03800
C 	C 	0.51793 0.92463 0.32147 -0.09700
C 	C 	0.57371 0.00143 0.32963 0.04100
C 	C 	0.65328 0.04062 0.31567 -0.03800
H 	H 	0.69548 0.10016 0.32179 0.01600
C 	C 	0.67531 0.00614 0.29263 -0.05500
C 	C 	0.61921 0.92932 0.28435 -0.00100
C 	C 	0.54179 0.88860 0.29912 -0.00800
H 	H 	0.49911 0.82934 0.29289 0.03700
C 	C 	0.63808 0.89266 0.25948 0.02600
C 	C 	0.57958 0.88031 0.23691 -0.05300
C 	C 	0.59587 0.84336 0.21371 -0.01600
C 	C 	0.67105 0.81952 0.21281 -0.04500
C 	C 	0.72971 0.83205 0.23519 -0.01300
C 	C 	0.71276 0.86769 0.25861 -0.04600
C 	C 	0.54802 0.04228 0.35225 0.00800
C 	C 	0.58970 0.04691 0.37771 -0.03800
C 	C 	0.56568 0.08612 0.39904 -0.01500
C 	C 	0.49976 0.12038 0.39506 -0.02900
C 	C 	0.45824 0.11602 0.36970 -0.01600
C 	C 	0.48304 0.07792 0.34822 -0.03700
H 	H 	0.59740 0.08919 0.41872 0.03800
H 	H 	0.48056 0.14996 0.41166 0.03900
H 	H 	0.40712 0.14241 0.36666 0.03400
H 	H 	0.45170 0.07582 0.32851 0.04800
H 	H 	0.64021 0.01987 0.38098 0.04400
H 	H 	0.52150 0.89905 0.23741 0.04300
H 	H 	0.55046 0.83353 0.19639 0.01000
H 	H 	0.75804 0.87678 0.27594 0.05400
H 	H 	0.78821 0.81407 0.23438 0.03300
H 	H 	0.68405 0.79163 0.19474 0.02700
C 	C 	0.97535 0.61166 0.33343 -0.00500
C 	C 	0.02523 0.60626 0.31053 -0.05100
C 	C 	0.99729 0.53660 0.29496 0.05300
H 	H 	0.03799 0.53093 0.27816 0.01800
C 	C 	0.92229 0.47160 0.30249 -0.09500
C 	C 	0.86471 0.48112 0.32264 0.03900
C 	C 	0.89122 0.55169 0.33791 -0.04500
H 	H 	0.85001 0.55725 0.35457 0.05600
C 	C 	0.77558 0.41897 0.32717 0.00400
C 	C 	0.69624 0.42772 0.31697 -0.04600
C 	C 	0.61246 0.36664 0.31950 -0.03000
C 	C 	0.60747 0.29692 0.33234 -0.04100
C 	C 	0.68611 0.28844 0.34299 -0.03500
C 	C 	0.77008 0.34951 0.34060 -0.05400
C 	C 	0.11019 0.67108 0.30374 0.03400
C 	C 	0.10801 0.74499 0.29640 -0.07300
C 	C 	0.18651 0.80348 0.28729 -0.02200
C 	C 	0.26761 0.78880 0.28569 -0.04500
C 	C 	0.27072 0.71592 0.29359 -0.01900
C 	C 	0.19232 0.65716 0.30267 -0.07000
H 	H 	0.18416 0.85969 0.28111 0.03100
H 	H 	0.32815 0.83406 0.27847 0.04400
H 	H 	0.33382 0.70494 0.29265 0.03200
H 	H 	0.19524 0.60097 0.30892 0.04700
H 	H 	0.04535 0.75653 0.29735 0.04700
H 	H 	0.69980 0.48122 0.30671 0.03800
H 	H 	0.55160 0.37283 0.31112 0.03100
H 	H 	0.83086 0.34238 0.34873 0.04200
H 	H 	0.68208 0.23442 0.35297 0.03000
H 	H 	0.54271 0.24944 0.33393 0.03200
C 	C 	0.10498 0.01130 0.34020 -0.06800
C 	C 	0.02917 0.00179 0.32290 0.01900
C 	C 	0.01871 0.06846 0.31128 -0.04700
H 	H 	0.96467 0.06069 0.29658 0.02400
C 	C 	0.08514 0.14349 0.31528 -0.07700
C 	C 	0.15093 0.15440 0.33598 0.02500
C 	C 	0.16029 0.08811 0.34844 -0.03100
H 	H 	0.21348 0.09628 0.36352 0.04400
C 	C 	0.21165 0.23481 0.34418 0.01400
C 	C 	0.30624 0.25651 0.34232 -0.04300
C 	C 	0.36320 0.33260 0.34999 -0.02200
C 	C 	0.32625 0.38729 0.35952 -0.03300
C 	C 	0.23221 0.36603 0.36144 -0.02200
C 	C 	0.17492 0.28984 0.35398 -0.03500
C 	C 	0.96228 0.92293 0.31595 0.01500
C 	C 	0.89339 0.88433 0.33399 -0.04800
C 	C 	0.83182 0.80872 0.32772 -0.02800
C 	C 	0.83774 0.77210 0.30325 -0.03100
C 	C 	0.90414 0.81162 0.28479 -0.03100
C 	C 	0.96600 0.88708 0.29101 -0.01700
H 	H 	0.77965 0.77847 0.34183 0.02700
H 	H 	0.79025 0.71349 0.29846 0.03500
H 	H 	0.90799 0.78360 0.26572 0.04000
H 	H 	0.01672 0.91746 0.27655 0.02600
H 	H 	0.88869 0.91227 0.35303 0.02600
H 	H 	0.33550 0.21445 0.33516 0.03900
H 	H 	0.43602 0.34900 0.34872 0.03100
H 	H 	0.10213 0.27364 0.35570 0.04300
H 	H 	0.20373 0.40850 0.36881 0.03700
H 	H 	0.37051 0.44606 0.36553 0.03000
C 	C 	0.43310 0.03168 0.54209 0.01900
C 	C 	0.47800 0.08505 0.52214 -0.05100
C 	C 	0.47162 0.06015 0.49515 -0.00700
C 	C 	0.42028 0.98180 0.48801 -0.03500
C 	C 	0.37619 0.92823 0.50799 -0.02100
C 	C 	0.38259 0.95312 0.53497 -0.06200
C 	C 	0.43563 0.05853 0.56964 0.04000
C 	C 	0.43758 0.08264 0.59248 -0.10900
C 	C 	0.41110 0.95665 0.46013 0.04600
C 	C 	0.40199 0.93425 0.43693 -0.12600
H 	H 	0.51702 0.14593 0.52748 0.04300
H 	H 	0.50592 0.10188 0.47983 0.03400
H 	H 	0.33639 0.86754 0.50262 0.03100
H 	H 	0.34756 0.91156 0.55026 0.04200
C 	C 	0.92423 0.60559 0.56551 -0.02900
C 	C 	0.89048 0.66233 0.55564 -0.01700
C 	C 	0.92053 0.69873 0.53108 -0.04800
C 	C 	0.98511 0.67910 0.51649 0.02000
C 	C 	0.02549 0.62851 0.52770 -0.08900
C 	C 	0.99496 0.59169 0.55216 0.02200
C 	C 	0.87357 0.55071 0.58526 0.05700
C 	C 	0.82550 0.50324 0.60045 -0.11200
C 	C 	0.99938 0.70029 0.48863 0.06600
C 	C 	0.01169 0.71393 0.46502 -0.13500
H 	H 	0.83657 0.67420 0.56604 0.03900
H 	H 	0.89001 0.73875 0.52274 0.04400
H 	H 	0.07663 0.61407 0.51671 0.04800
H 	H 	0.02223 0.54864 0.55981 0.01100
C 	C 	0.30671 0.49630 0.48179 -0.00600
C 	C 	0.36868 0.45680 0.48111 -0.03500
C 	C 	0.38521 0.42006 0.50422 -0.03400
C 	C 	0.33985 0.42278 0.52809 -0.00600
C 	C 	0.27524 0.45958 0.52846 -0.03600
C 	C 	0.25865 0.49624 0.50535 -0.03500
C 	C 	0.29894 0.54322 0.45935 0.04200
C 	C 	0.29299 0.58462 0.44112 -0.10900
C 	C 	0.36493 0.39358 0.55264 0.04300
C 	C 	0.38780 0.37026 0.57315 -0.10900
H 	H 	0.40586 0.45643 0.46293 0.03800
H 	H 	0.43498 0.39139 0.50378 0.04100
H 	H 	0.23966 0.46161 0.54683 0.03400
H 	H 	0.21044 0.52654 0.50598 0.03700
C 	C 	0.74549 0.14962 0.71218 -0.06200
C 	C 	0.72339 0.06673 0.71071 -0.00300
C 	C 	0.75233 0.02883 0.73159 0.01200
H 	H 	0.73338 0.96511 0.73106 -0.02900
C 	C 	0.80603 0.07303 0.75308 -0.10400
C 	C 	0.83984 0.15590 0.75206 0.03300
C 	C 	0.80844 0.19372 0.73196 -0.03500
H 	H 	0.83210 0.25770 0.73199 0.04400
C 	C 	0.91072 0.20369 0.77130 0.02600
C 	C 	0.88748 0.24155 0.79324 -0.05100
C 	C 	0.95552 0.29194 0.81014 -0.00800
C 	C 	0.04667 0.30506 0.80514 -0.05600
C 	C 	0.07001 0.26567 0.78378 -0.01200
C 	C 	0.00233 0.21565 0.76668 -0.05800
C 	C 	0.67559 0.02030 0.68675 0.05000
C 	C 	0.71299 0.03884 0.66105 -0.06200
C 	C 	0.66260 0.00208 0.63810 0.01000
C 	C 	0.57576 0.94548 0.64071 -0.06100
C 	C 	0.53970 0.92459 0.66630 -0.00100
C 	C 	0.58968 0.96134 0.68931 -0.07300
H 	H 	0.69076 0.01763 0.61829 0.02800
H 	H 	0.53669 0.91738 0.62292 0.04300
H 	H 	0.47292 0.88006 0.66830 0.02800
H 	H 	0.56123 0.94474 0.70901 0.03900
H 	H 	0.77991 0.08315 0.65885 0.03900
H 	H 	0.81698 0.23253 0.79702 0.04400
H 	H 	0.93777 0.32073 0.82711 0.04300
H 	H 	0.02089 0.18640 0.74983 0.05000
H 	H 	0.14048 0.27409 0.78042 0.03300
H 	H 	0.09913 0.34564 0.81790 0.03500
C 	C 	0.17132 0.98831 0.75134 -0.08900
C 	C 	0.22001 0.95602 0.73401 0.00300
C 	C 	0.27934 0.00449 0.71524 0.01000
H 	H 	0.31580 0.97940 0.70174 0.03100
C 	C 	0.29011 0.08470 0.71340 -0.08200
C 	C 	0.24291 0.11709 0.73135 0.01800
C 	C 	0.18447 0.06870 0.75013 -0.00700
H 	H 	0.14807 0.09368 0.76372 0.04400
C 	C 	0.25541 0.20180 0.73127 0.01900
C 	C 	0.31803 0.25411 0.74925 -0.05600
C 	C 	0.32299 0.33253 0.75148 -0.02000
C 	C 	0.26520 0.35892 0.73584 -0.04500
C 	C 	0.20148 0.30662 0.71823 -0.02700
C 	C 	0.19586 0.22798 0.71612 -0.05100
C 	C 	0.20766 0.87140 0.73491 0.02500
C 	C 	0.13023 0.81490 0.72295 -0.04700
C 	C 	0.11319 0.73445 0.72649 -0.01900
C 	C 	0.17378 0.71011 0.74166 -0.03700
C 	C 	0.25195 0.76620 0.75315 -0.02100
C 	C 	0.26910 0.84674 0.74976 -0.04900
H 	H 	0.05267 0.69099 0.71765 0.02900
H 	H 	0.16006 0.64782 0.74457 0.03500
H 	H 	0.29869 0.74728 0.76494 0.02900
H 	H 	0.32856 0.88989 0.75927 0.04100
H 	H 	0.08228 0.83338 0.71154 0.03900
H 	H 	0.36247 0.23394 0.76153 0.04900
H 	H 	0.37170 0.37284 0.76530 0.02900
H 	H 	0.14488 0.18727 0.70293 0.03900
H 	H 	0.15568 0.32675 0.70648 0.02100
H 	H 	0.26912 0.41964 0.73757 0.03300
C 	C 	0.63041 0.50441 0.70212 -0.07300
C 	C 	0.61506 0.48931 0.73015 0.01400
C 	C 	0.62510 0.55248 0.74794 -0.01900
H 	H 	0.60957 0.54093 0.76906 0.04000
C 	C 	0.66294 0.63048 0.73921 -0.07800
C 	C 	0.68118 0.64553 0.71159 0.01900
C 	C 	0.65901 0.58243 0.69311 -0.02300
H 	H 	0.67250 0.59440 0.67191 0.05300
C 	C 	0.73065 0.72645 0.70214 0.01000
C 	C 	0.68649 0.76435 0.68551 -0.04600
C 	C 	0.73340 0.84066 0.67651 -0.02900
C 	C 	0.82380 0.88005 0.68449 -0.03900
C 	C 	0.86839 0.84227 0.70085 -0.03400
C 	C 	0.82244 0.76521 0.70939 -0.05500
C 	C 	0.60261 0.41056 0.74162 0.02200
C 	C 	0.66524 0.40287 0.76087 -0.04900
C 	C 	0.66763 0.32843 0.76683 -0.01100
C 	C 	0.60515 0.26122 0.75455 -0.02600
C 	C 	0.53731 0.26804 0.73736 -0.02900
C 	C 	0.53405 0.34244 0.73160 -0.04600
H 	H 	0.71825 0.32289 0.78082 0.02700
H 	H 	0.60928 0.20396 0.75839 0.04800
H 	H 	0.48820 0.21597 0.72823 0.02100
H 	H 	0.48181 0.34734 0.71811 0.02900
H 	H 	0.71176 0.45427 0.77114 0.04200
H 	H 	0.61606 0.73465 0.67953 0.04300
H 	H 	0.69996 0.86890 0.66314 0.03500
H 	H 	0.85749 0.73625 0.72201 0.03000
H 	H 	0.93844 0.87277 0.70697 0.03800
H 	H 	0.85943 0.93967 0.67787 0.03300
C 	C 	0.06169 0.57023 0.05288 0.00700
C 	C 	0.05206 0.49120 0.04823 -0.06300
C 	C 	0.99199 0.44676 0.02815 -0.00900
C 	C 	0.94119 0.48111 0.01266 -0.02000
C 	C 	0.94876 0.55944 0.01785 -0.00900
C 	C 	0.00881 0.60389 0.03796 -0.06400
C 	C 	0.13085 0.61813 0.07139 0.03000
C 	C 	0.19075 0.65635 0.08668 -0.10400
C 	C 	0.88804 0.43872 0.98986 0.04900
C 	C 	0.84557 0.40528 0.97017 -0.10300
H 	H 	0.09274 0.46479 0.05970 0.04100
H 	H 	0.98671 0.38634 0.02421 0.03400
H 	H 	0.90991 0.58649 0.00588 0.03600
H 	H 	0.01573 0.66489 0.04148 0.03700
C 	C 	0.34702 0.18311 0.96141 -0.00900
C 	C 	0.39537 0.23312 0.98247 -0.03700
C 	C 	0.38683 0.20581 0.00892 -0.03400
C 	C 	0.32963 0.12858 0.01435 -0.00900
C 	C 	0.27329 0.08228 0.99378 -0.03500
C 	C 	0.28229 0.10935 0.96731 -0.03500
C 	C 	0.37727 0.19993 0.93423 0.04200
C 	C 	0.40650 0.21271 0.91181 -0.12000
C 	C 	0.34376 0.09140 0.03860 0.04700
C 	C 	0.35837 0.05757 0.05789 -0.11500
H 	H 	0.44441 0.29089 0.97813 0.03700
H 	H 	0.42949 0.24258 0.02481 0.03900
H 	H 	0.22763 0.02297 0.99790 0.03800
H 	H 	0.24380 0.07065 0.95118 0.03800
C 	C 	0.55786 0.64763 0.95063 -0.00600
C 	C 	0.63728 0.70283 0.96200 -0.03600
C 	C 	0.63369 0.74197 0.98614 -0.03400
C 	C 	0.55057 0.72643 0.99890 -0.00800
C 	C 	0.47034 0.67567 0.98651 -0.03500
C 	C 	0.47398 0.63640 0.96240 -0.03600
C 	C 	0.56461 0.59276 0.93038 0.04300
C 	C 	0.57301 0.54487 0.91465 -0.10600
C 	C 	0.54834 0.75651 0.02574 0.04600
C 	C 	0.54415 0.77967 0.04836 -0.11500
H 	H 	0.70235 0.71233 0.95291 0.04100
H 	H 	0.69586 0.78193 0.99542 0.03700
H 	H 	0.40562 0.66420 0.99608 0.03800
H 	H 	0.41217 0.59434 0.95363 0.03800
C 	C 	0.69819 0.87456 0.85207 -0.08600
C 	C 	0.61374 0.88069 0.85822 0.02900
C 	C 	0.61018 0.95437 0.86594 -0.04400
H 	H 	0.54510 0.96077 0.86889 0.04500
C 	C 	0.69086 0.01987 0.86942 -0.05600
C 	C 	0.77476 0.00692 0.87006 0.02800
C 	C 	0.77798 0.93495 0.86062 -0.03700
H 	H 	0.84293 0.92788 0.85842 0.01400
C 	C 	0.85787 0.06682 0.88146 0.01400
C 	C 	0.86383 0.08348 0.90928 -0.05400
C 	C 	0.92119 0.15712 0.91905 -0.05200
C 	C 	0.97272 0.21383 0.90114 -0.05400
C 	C 	0.97322 0.19458 0.87379 -0.00500
C 	C 	0.91908 0.11976 0.86415 -0.04100
C 	C 	0.53024 0.80942 0.85815 0.01300
C 	C 	0.45478 0.80568 0.84200 -0.04600
C 	C 	0.37591 0.73848 0.84223 -0.02300
C 	C 	0.37172 0.67498 0.85864 -0.03900
C 	C 	0.44644 0.67846 0.87483 -0.02200
C 	C 	0.52559 0.74542 0.87463 -0.04200
H 	H 	0.31795 0.73572 0.82972 0.02500
H 	H 	0.31048 0.62314 0.85885 0.03300
H 	H 	0.44291 0.62936 0.88759 0.03500
H 	H 	0.58297 0.74783 0.88738 0.04700
H 	H 	0.45706 0.85465 0.82938 0.03700
H 	H 	0.81874 0.04202 0.92294 0.03800
H 	H 	0.92256 0.17146 0.94031 0.02600
H 	H 	0.91653 0.10671 0.84272 0.05200
H 	H 	0.01220 0.23872 0.85992 0.02800
H 	H 	0.01212 0.27268 0.90842 0.02300
C 	C 	0.39190 0.17572 0.81173 -0.08100
C 	C 	0.36952 0.09397 0.80684 0.02200
C 	C 	0.28193 0.04191 0.81216 0.00200
H 	H 	0.26436 0.97941 0.80794 0.01700
C 	C 	0.21681 0.07005 0.82273 -0.09100
C 	C 	0.24160 0.15107 0.82928 0.03200
C 	C 	0.32321 0.20356 0.81925 -0.01500
H 	H 	0.33871 0.26655 0.82137 0.02700
C 	C 	0.20036 0.17773 0.85253 0.02200
C 	C 	0.19760 0.25459 0.85273 -0.04700
C 	C 	0.19469 0.29259 0.87716 -0.02000
C 	C 	0.18651 0.25201 0.90134 -0.03400
C 	C 	0.17823 0.17270 0.90104 -0.01600
C 	C 	0.18737 0.13603 0.87691 -0.04000
C 	C 	0.43385 0.06318 0.79374 0.02000
C 	C 	0.47810 0.02171 0.80873 -0.02400
C 	C 	0.53685 0.99062 0.79597 -0.04000
C 	C 	0.54797 0.99735 0.76812 -0.04200
C 	C 	0.50373 0.03840 0.75313 -0.01100
C 	C 	0.44712 0.07156 0.76595 -0.04600
H 	H 	0.57323 0.96077 0.80760 0.04000
H 	H 	0.59007 0.97008 0.75818 0.01500
H 	H 	0.51380 0.04512 0.73164 0.04500
H 	H 	0.41404 0.10412 0.75440 0.04900
H 	H 	0.46730 0.01401 0.83019 0.05400
H 	H 	0.20495 0.28693 0.83416 0.03500
H 	H 	0.19757 0.35318 0.87729 0.02700
H 	H 	0.19060 0.07738 0.87749 0.05300
H 	H 	0.16824 0.14047 0.91968 0.03300
H 	H 	0.18355 0.28127 0.92022 0.03500
C 	C 	0.95675 0.59724 0.82291 -0.08300
C 	C 	0.90991 0.52612 0.80884 0.02500
C 	C 	0.87860 0.45578 0.82342 -0.02800
H 	H 	0.83276 0.40216 0.81390 0.02700
C 	C 	0.90447 0.45565 0.85058 -0.07900
C 	C 	0.97327 0.52257 0.86160 0.03100
C 	C 	0.99713 0.59428 0.84801 -0.00900
H 	H 	0.04113 0.64833 0.85780 0.00800
C 	C 	0.01500 0.51875 0.88823 0.01100
C 	C 	0.06260 0.46701 0.89204 -0.04600
C 	C 	0.09531 0.45825 0.91772 -0.02100
C 	C 	0.08058 0.50085 0.93967 -0.03700
C 	C 	0.03363 0.55271 0.93596 -0.01300
C 	C 	0.00083 0.56175 0.91032 -0.05400
C 	C 	0.91110 0.52244 0.77891 0.01000
C 	C 	0.95100 0.47355 0.76612 -0.04600
C 	C 	0.94850 0.46654 0.73801 -0.02500
C 	C 	0.90772 0.50918 0.72247 -0.03700
C 	C 	0.86946 0.55902 0.73498 -0.02300
C 	C 	0.87069 0.56560 0.76310 -0.04400
H 	H 	0.97811 0.42795 0.72828 0.02600
H 	H 	0.90548 0.50339 0.70071 0.02100
H 	H 	0.83739 0.59146 0.72289 0.03600
H 	H 	0.83555 0.60028 0.77250 0.03800
H 	H 	0.98347 0.44074 0.77797 0.04400
H 	H 	0.07293 0.43277 0.87521 0.03700
H 	H 	0.13150 0.41800 0.92064 0.02800
H 	H 	0.96274 0.60069 0.90772 0.05700
H 	H 	0.02176 0.58522 0.95301 0.03000
H 	H 	0.10516 0.49341 0.95958 0.03600
