data_crystal

_cell_length_a 40.11152
_cell_length_b 39.88267
_cell_length_c 36.33496
_cell_angle_alpha 88.28543
_cell_angle_beta  77.80797
_cell_angle_gamma 79.32537

_symmetry_space_group_name_	'P 1'
_symmetry_space_group_name_H-M	'P 1'

loop_
_symmetry_equiv_pos_as_xyz
  x,y,z

loop_
_atom_site_label
_atom_site_type_symbol
_atom_site_fract_x
_atom_site_fract_y
_atom_site_fract_z
_atom_site_charge
Ni	Ni	0.02665 0.02277 0.99392 1.09700
O 	O 	0.97514 0.01973 0.00403 -0.70000
Ni	Ni	0.97803 0.97060 0.98908 1.09700
O 	O 	0.01795 0.07457 0.00398 -0.36100
O 	O 	0.97835 0.08834 0.96676 -0.40700
O 	O 	0.02725 0.01958 0.05064 -0.37000
Ni	Ni	0.95161 0.04814 0.96859 1.06300
O 	O 	0.08606 0.97611 0.02265 -0.40600
O 	O 	0.98926 0.02909 0.92341 -0.41800
O 	O 	0.92601 0.97130 0.99893 -0.38400
O 	O 	0.02938 0.97359 0.97959 -0.70500
O 	O 	0.07866 0.02157 0.98332 -0.38100
O 	O 	0.98770 0.91892 0.97827 -0.36800
O 	O 	0.02346 0.90624 0.02003 -0.40800
Ni	Ni	0.05225 0.94524 0.01548 1.06400
H 	H 	0.96299 0.02453 0.03054 0.15400
H 	H 	0.04183 0.96846 0.95324 0.15300
C 	C 	0.99193 0.99828 0.91043 0.28300
O 	O 	0.01579 0.96599 0.06042 -0.42200
C 	C 	0.99269 0.09643 0.99379 0.26800
C 	C 	0.90567 0.99573 0.98472 0.27800
C 	C 	0.01551 0.99623 0.07346 0.28700
C 	C 	0.00930 0.89663 0.99352 0.27200
C 	C 	0.09930 0.99694 0.99691 0.27300
O 	O 	0.97856 0.97507 0.93216 -0.37000
O 	O 	0.91941 0.01648 0.95936 -0.40900
Ni	Ni	0.03513 0.00925 0.49344 1.09800
O 	O 	0.98339 0.00739 0.50402 -0.70500
Ni	Ni	0.98492 0.95824 0.49088 1.09700
O 	O 	0.02704 0.06094 0.50296 -0.36700
O 	O 	0.98960 0.07364 0.46325 -0.41300
O 	O 	0.03561 0.00577 0.55017 -0.37100
Ni	Ni	0.96032 0.03526 0.46798 1.06300
O 	O 	0.09397 0.96268 0.52277 -0.41000
O 	O 	0.99671 0.01376 0.42303 -0.42100
O 	O 	0.93267 0.96029 0.50206 -0.38400
O 	O 	0.03668 0.96009 0.47997 -0.70400
O 	O 	0.08727 0.00730 0.48238 -0.38200
O 	O 	0.99258 0.90650 0.48203 -0.37000
O 	O 	0.03163 0.89288 0.51999 -0.40900
Ni	Ni	0.06006 0.93196 0.51574 1.06300
H 	H 	0.97132 0.01305 0.53038 0.15200
H 	H 	0.04857 0.95461 0.45351 0.15300
C 	C 	0.99694 0.98323 0.41079 0.28500
O 	O 	0.02375 0.95235 0.56101 -0.41900
C 	C 	0.00350 0.08285 0.49010 0.27400
C 	C 	0.91249 0.98465 0.48752 0.27700
C 	C 	0.02172 0.98343 0.57281 0.28300
C 	C 	0.01659 0.88428 0.49381 0.27700
C 	C 	0.10759 0.98291 0.49663 0.27700
O 	O 	0.98436 0.96061 0.43410 -0.37000
O 	O 	0.92635 0.00459 0.46121 -0.40900
Ni	Ni	0.03305 0.51637 0.00236 1.10000
O 	O 	0.98099 0.51756 0.00823 -0.70100
Ni	Ni	0.98021 0.46905 0.99656 1.09800
O 	O 	0.02445 0.56769 0.01444 -0.36700
O 	O 	0.99431 0.58071 0.96731 -0.41200
O 	O 	0.02413 0.50662 0.05898 -0.39000
Ni	Ni	0.95998 0.54645 0.97229 1.06300
O 	O 	0.10273 0.45813 0.97753 -0.42200
O 	O 	0.99329 0.52122 0.92727 -0.42000
O 	O 	0.92789 0.47313 0.00870 -0.37500
O 	O 	0.03210 0.46986 0.98329 -0.70500
O 	O 	0.08534 0.51349 0.00058 -0.37100
O 	O 	0.98615 0.41662 0.99562 -0.37900
O 	O 	0.02417 0.41202 0.03492 -0.42000
Ni	Ni	0.06340 0.43610 0.00579 1.07000
H 	H 	0.96796 0.52363 0.03420 0.15400
H 	H 	0.04060 0.46917 0.95565 0.15700
C 	C 	0.98872 0.49200 0.91561 0.28600
O 	O 	0.06653 0.45920 0.05413 -0.39900
C 	C 	0.00651 0.59047 0.99552 0.26400
C 	C 	0.90819 0.49923 0.99583 0.26200
C 	C 	0.04099 0.48053 0.07456 0.29300
C 	C 	0.00522 0.39781 0.01670 0.27100
C 	C 	0.10994 0.48629 0.98980 0.28600
O 	O 	0.97836 0.46902 0.94006 -0.37200
O 	O 	0.92215 0.51885 0.96884 -0.40800
Ni	Ni	0.01693 0.51268 0.49510 1.09700
O 	O 	0.96487 0.51220 0.50602 -0.70400
Ni	Ni	0.96502 0.46264 0.49587 1.09700
O 	O 	0.01067 0.56472 0.50051 -0.36900
O 	O 	0.97228 0.57668 0.46169 -0.41000
O 	O 	0.01709 0.51301 0.55202 -0.37100
Ni	Ni	0.94222 0.53882 0.46874 1.06300
O 	O 	0.07472 0.46691 0.52727 -0.41200
O 	O 	0.97787 0.51567 0.42397 -0.41500
O 	O 	0.91255 0.46583 0.50719 -0.37900
O 	O 	0.01715 0.46318 0.48480 -0.70400
O 	O 	0.06934 0.50926 0.48386 -0.38400
O 	O 	0.97159 0.41063 0.48984 -0.36700
O 	O 	0.00990 0.39871 0.52868 -0.41200
Ni	Ni	0.03977 0.43668 0.52213 1.06300
H 	H 	0.95298 0.51910 0.53215 0.15300
H 	H 	0.02914 0.45625 0.45872 0.15100
C 	C 	0.97983 0.48378 0.41478 0.28000
O 	O 	0.00386 0.46044 0.56578 -0.42400
C 	C 	0.98707 0.58642 0.48749 0.27600
C 	C 	0.89286 0.49048 0.49246 0.27500
C 	C 	0.00509 0.49101 0.57672 0.28500
C 	C 	0.99565 0.38909 0.50233 0.27400
C 	C 	0.08905 0.48601 0.50028 0.27700
O 	O 	0.96487 0.46317 0.43903 -0.37100
O 	O 	0.90711 0.50863 0.46450 -0.40900
Ni	Ni	0.52411 0.03953 0.99726 1.09600
O 	O 	0.47210 0.03895 0.01134 -0.70200
Ni	Ni	0.47154 0.99061 0.99658 1.09600
O 	O 	0.51846 0.09082 0.00778 -0.36500
O 	O 	0.47663 0.10723 0.97371 -0.40900
O 	O 	0.52818 0.03505 0.05304 -0.37100
Ni	Ni	0.44690 0.06906 0.97856 1.06100
O 	O 	0.58419 0.99012 0.02144 -0.40500
O 	O 	0.48078 0.04927 0.93097 -0.42000
O 	O 	0.41921 0.99371 0.01078 -0.37700
O 	O 	0.52348 0.99116 0.98298 -0.70700
O 	O 	0.57646 0.03598 0.98276 -0.38400
O 	O 	0.47803 0.93929 0.98528 -0.36800
O 	O 	0.51695 0.92420 0.02316 -0.41000
Ni	Ni	0.54795 0.96131 0.01654 1.06400
H 	H 	0.46178 0.04366 0.03835 0.15300
H 	H 	0.53407 0.98609 0.95610 0.15300
C 	C 	0.48072 0.01904 0.91806 0.28300
O 	O 	0.51465 0.98230 0.06357 -0.42200
C 	C 	0.49386 0.11424 0.99867 0.26600
C 	C 	0.39843 0.01873 0.99801 0.26800
C 	C 	0.51628 0.01208 0.07634 0.28600
C 	C 	0.50049 0.91599 0.99806 0.27100
C 	C 	0.59722 0.01071 0.99530 0.27300
O 	O 	0.46801 0.99607 0.94074 -0.37000
O 	O 	0.41149 0.03973 0.97240 -0.41000
Ni	Ni	0.53132 0.02850 0.49668 1.09800
O 	O 	0.47942 0.02714 0.50975 -0.70400
Ni	Ni	0.47995 0.97818 0.49652 1.09800
O 	O 	0.52450 0.08016 0.50570 -0.36700
O 	O 	0.48384 0.09410 0.46979 -0.41200
O 	O 	0.53393 0.02558 0.55294 -0.36900
Ni	Ni	0.45458 0.05560 0.47549 1.06200
O 	O 	0.59094 0.98128 0.52372 -0.40800
O 	O 	0.48943 0.03453 0.42921 -0.42200
O 	O 	0.42770 0.98056 0.51002 -0.38300
O 	O 	0.53179 0.97950 0.48364 -0.70400
O 	O 	0.58362 0.02582 0.48340 -0.38300
O 	O 	0.48698 0.92646 0.48753 -0.36800
O 	O 	0.52640 0.91296 0.52500 -0.41000
Ni	Ni	0.55600 0.95115 0.51858 1.06300
H 	H 	0.46848 0.03253 0.53649 0.15200
H 	H 	0.54287 0.97390 0.45698 0.15400
C 	C 	0.48891 0.00427 0.41676 0.28400
O 	O 	0.52123 0.97257 0.56439 -0.42300
C 	C 	0.49972 0.10243 0.49535 0.27500
C 	C 	0.40687 0.00481 0.49623 0.27700
C 	C 	0.52169 0.00296 0.57648 0.28600
C 	C 	0.51071 0.90411 0.49957 0.27700
C 	C 	0.60422 0.00116 0.49699 0.27800
O 	O 	0.47737 0.98121 0.44023 -0.37000
O 	O 	0.41988 0.02526 0.46995 -0.41200
Ni	Ni	0.52953 0.53593 0.01452 1.10100
O 	O 	0.47736 0.53650 0.02670 -0.70400
Ni	Ni	0.47528 0.49255 0.00268 1.10100
O 	O 	0.52494 0.58759 0.02125 -0.37700
O 	O 	0.48680 0.59837 0.98194 -0.42500
O 	O 	0.53136 0.53048 0.07083 -0.37000
Ni	Ni	0.44686 0.57328 0.00717 1.06900
O 	O 	0.58625 0.48145 0.03875 -0.40700
O 	O 	0.44327 0.55510 0.95610 -0.40100
O 	O 	0.42292 0.49783 0.00353 -0.37500
O 	O 	0.52748 0.48916 0.99812 -0.70700
O 	O 	0.58197 0.53019 0.00315 -0.37700
O 	O 	0.48258 0.44262 0.98553 -0.37600
O 	O 	0.51162 0.42447 0.03245 -0.41000
Ni	Ni	0.54725 0.45662 0.03204 1.06500
H 	H 	0.46865 0.53505 0.05417 0.15500
H 	H 	0.54065 0.48467 0.97192 0.15400
C 	C 	0.46817 0.53438 0.93400 0.29500
O 	O 	0.51444 0.47874 0.07888 -0.41700
C 	C 	0.50630 0.60932 0.00220 0.27100
C 	C 	0.39859 0.52435 0.01752 0.29100
C 	C 	0.51843 0.50721 0.09295 0.28600
C 	C 	0.50003 0.41777 0.00257 0.27600
C 	C 	0.60088 0.50227 0.01372 0.27000
O 	O 	0.48511 0.50705 0.94747 -0.39300
O 	O 	0.40626 0.55129 0.03206 -0.42000
Ni	Ni	0.50914 0.53305 0.51817 1.09800
O 	O 	0.45722 0.53158 0.52926 -0.70400
Ni	Ni	0.45824 0.48279 0.51490 1.09700
O 	O 	0.50172 0.58458 0.52839 -0.36800
O 	O 	0.46295 0.59884 0.49027 -0.41000
O 	O 	0.51020 0.52898 0.57470 -0.37000
Ni	Ni	0.43364 0.56049 0.49435 1.06200
O 	O 	0.56798 0.48512 0.54626 -0.40900
O 	O 	0.46997 0.53983 0.44901 -0.42300
O 	O 	0.40595 0.48512 0.52622 -0.38200
O 	O 	0.51007 0.48415 0.50427 -0.70400
O 	O 	0.56149 0.53050 0.50682 -0.38000
O 	O 	0.46568 0.43121 0.50498 -0.36700
O 	O 	0.50363 0.41711 0.54406 -0.41200
Ni	Ni	0.53312 0.45532 0.53983 1.06300
H 	H 	0.44548 0.53671 0.55583 0.15100
H 	H 	0.52192 0.47879 0.47777 0.15200
C 	C 	0.46986 0.50985 0.43562 0.28600
O 	O 	0.49766 0.47584 0.58576 -0.41800
C 	C 	0.47803 0.60714 0.51653 0.27700
C 	C 	0.38571 0.50959 0.51198 0.27700
C 	C 	0.49579 0.50698 0.59737 0.28200
C 	C 	0.48907 0.40871 0.51736 0.27400
C 	C 	0.58167 0.50501 0.51977 0.27500
O 	O 	0.45769 0.48645 0.45807 -0.36900
O 	O 	0.39947 0.53033 0.48655 -0.41200
C 	C 	0.50917 0.55947 0.71314 -0.04400
C 	C 	0.49327 0.53817 0.69522 0.00800
C 	C 	0.47095 0.51805 0.71694 0.00600
C 	C 	0.46862 0.51609 0.75646 -0.00000
C 	C 	0.50323 0.56092 0.75240 -0.03600
C 	C 	0.48194 0.54014 0.77459 -0.00100
C 	C 	0.50003 0.53609 0.65570 -0.01900
C 	C 	0.48366 0.51503 0.63787 -0.07600
C 	C 	0.45116 0.50083 0.69874 -0.05400
C 	C 	0.45731 0.48831 0.77723 -0.03700
C 	C 	0.46591 0.51170 0.83465 0.00700
C 	C 	0.47693 0.54000 0.81453 0.00700
C 	C 	0.48115 0.56804 0.83489 -0.05400
C 	C 	0.47835 0.56607 0.87389 0.00100
C 	C 	0.47059 0.53662 0.89317 -0.07500
C 	C 	0.46389 0.50970 0.87365 -0.01400
C 	C 	0.45798 0.49887 0.65949 0.00000
H 	H 	0.44364 0.48432 0.64586 0.02800
H 	H 	0.42999 0.48973 0.71475 0.04000
H 	H 	0.51888 0.54977 0.63900 0.05000
H 	H 	0.52644 0.57484 0.69664 0.04000
H 	H 	0.51724 0.57637 0.76522 0.03600
H 	H 	0.45128 0.46730 0.76327 0.03700
H 	H 	0.48491 0.59184 0.82105 0.04000
H 	H 	0.48207 0.58755 0.88915 0.02800
H 	H 	0.45648 0.48751 0.88892 0.04500
C 	C 	0.45657 0.48597 0.81573 -0.04300
H 	H 	0.44850 0.46405 0.83095 0.03900
C 	C 	0.52365 0.45948 0.21828 -0.04300
C 	C 	0.51281 0.48699 0.19615 0.00600
C 	C 	0.49754 0.51919 0.21310 0.00700
C 	C 	0.48832 0.52195 0.25317 -0.00100
C 	C 	0.51887 0.46333 0.25712 -0.03700
C 	C 	0.49896 0.49352 0.27540 -0.00100
C 	C 	0.51889 0.48313 0.15690 -0.01500
C 	C 	0.51194 0.51150 0.13412 -0.07600
C 	C 	0.49352 0.54803 0.18968 -0.05500
C 	C 	0.46788 0.55192 0.27133 -0.03700
C 	C 	0.47442 0.52873 0.33229 0.00700
C 	C 	0.49014 0.49653 0.31553 0.00600
C 	C 	0.49519 0.46800 0.33926 -0.05500
C 	C 	0.48911 0.47248 0.37830 0.00300
C 	C 	0.47642 0.50502 0.39447 -0.07500
C 	C 	0.46859 0.53296 0.37144 -0.01600
C 	C 	0.49994 0.54398 0.15060 0.00400
H 	H 	0.49592 0.56622 0.13309 0.03000
H 	H 	0.48739 0.57362 0.20121 0.04100
H 	H 	0.52984 0.45823 0.14402 0.03400
H 	H 	0.53740 0.43539 0.20513 0.03600
H 	H 	0.53186 0.44327 0.27248 0.03500
H 	H 	0.45465 0.57172 0.25583 0.03500
H 	H 	0.50176 0.44229 0.32808 0.04000
H 	H 	0.49382 0.45051 0.39601 0.03200
H 	H 	0.45711 0.55786 0.38407 0.03600
C 	C 	0.46296 0.55591 0.31011 -0.04300
H 	H 	0.44878 0.57990 0.32317 0.03600
C 	C 	0.54041 0.70208 0.49549 -0.04300
C 	C 	0.50941 0.69069 0.51035 0.00800
C 	C 	0.47772 0.71434 0.51847 0.00600
C 	C 	0.47839 0.75002 0.51633 -0.00000
C 	C 	0.54043 0.73656 0.48853 -0.03600
C 	C 	0.51028 0.76115 0.50148 -0.00100
C 	C 	0.50935 0.65556 0.51385 -0.01500
C 	C 	0.47797 0.64350 0.52184 -0.07200
C 	C 	0.44621 0.70177 0.52587 -0.05500
C 	C 	0.44825 0.77461 0.52932 -0.03600
C 	C 	0.47925 0.82048 0.50735 0.00800
C 	C 	0.51093 0.79682 0.49924 0.00700
C 	C 	0.54244 0.80940 0.49165 -0.05500
C 	C 	0.54212 0.84443 0.48888 0.00100
C 	C 	0.51068 0.86764 0.49514 -0.07200
C 	C 	0.47929 0.85560 0.50358 -0.01500
C 	C 	0.44652 0.66671 0.52822 0.00100
H 	H 	0.42219 0.65751 0.53317 0.01300
H 	H 	0.42162 0.71861 0.52696 0.03900
H 	H 	0.53370 0.63753 0.50773 0.04700
H 	H 	0.56437 0.68386 0.48704 0.03900
H 	H 	0.56354 0.74374 0.47164 0.03500
H 	H 	0.42514 0.76742 0.54622 0.03600
H 	H 	0.56703 0.79259 0.49070 0.03900
H 	H 	0.56647 0.85363 0.48363 0.01300
H 	H 	0.45495 0.87364 0.50969 0.04700
C 	C 	0.44826 0.80910 0.52235 -0.04300
H 	H 	0.42431 0.82732 0.53083 0.03900
C 	C 	0.48958 0.29183 0.56403 -0.04400
C 	C 	0.49210 0.31421 0.53361 0.00800
C 	C 	0.49224 0.30252 0.49718 0.00500
C 	C 	0.49519 0.26685 0.49078 -0.00100
C 	C 	0.48799 0.25781 0.55866 -0.03700
C 	C 	0.49353 0.24424 0.52196 -0.00100
C 	C 	0.49228 0.34874 0.53969 -0.02100
C 	C 	0.49035 0.37225 0.51038 -0.07300
C 	C 	0.48763 0.32687 0.46867 -0.05300
C 	C 	0.50069 0.25327 0.45409 -0.03700
C 	C 	0.49650 0.19690 0.47916 0.00800
C 	C 	0.49648 0.20858 0.51556 0.00500
C 	C 	0.50123 0.18421 0.54403 -0.05400
C 	C 	0.50135 0.14982 0.53758 -0.00000
C 	C 	0.49833 0.13887 0.50237 -0.07300
C 	C 	0.49626 0.16239 0.47311 -0.02000
C 	C 	0.48755 0.36125 0.47510 -0.00000
H 	H 	0.48461 0.37948 0.45277 0.03500
H 	H 	0.48200 0.31986 0.44246 0.04100
H 	H 	0.49276 0.35749 0.56752 0.04200
H 	H 	0.48714 0.30121 0.59236 0.03700
H 	H 	0.48110 0.24259 0.58320 0.03500
H 	H 	0.50762 0.26847 0.42953 0.03500
H 	H 	0.50695 0.19122 0.57018 0.04100
H 	H 	0.50447 0.13154 0.55984 0.03300
H 	H 	0.49565 0.15364 0.44531 0.04200
C 	C 	0.49899 0.21928 0.44874 -0.04400
H 	H 	0.50137 0.20991 0.42043 0.03700
C 	C 	0.49519 0.80299 0.05378 -0.04400
C 	C 	0.49770 0.82350 0.02180 0.01100
C 	C 	0.49693 0.80983 0.98650 0.00200
C 	C 	0.49895 0.77382 0.98286 -0.00300
C 	C 	0.49370 0.76866 0.05098 -0.03700
C 	C 	0.49887 0.75302 0.01542 0.00200
C 	C 	0.49932 0.85805 0.02514 -0.01800
C 	C 	0.49846 0.87975 0.99417 -0.07400
C 	C 	0.49298 0.83261 0.95637 -0.05300
C 	C 	0.50198 0.75809 0.94761 -0.03700
C 	C 	0.50101 0.70281 0.97717 0.00500
C 	C 	0.50290 0.71697 0.01172 0.00700
C 	C 	0.51078 0.69471 0.04095 -0.05500
C 	C 	0.51166 0.65979 0.03772 -0.00100
C 	C 	0.50634 0.64615 0.00477 -0.07600
C 	C 	0.50155 0.66761 0.97426 -0.02600
C 	C 	0.49456 0.86709 0.96008 -0.00100
H 	H 	0.49231 0.88404 0.93651 0.03500
H 	H 	0.48673 0.82448 0.93100 0.04000
H 	H 	0.50053 0.86821 0.05210 0.04200
H 	H 	0.49316 0.81399 0.08127 0.03700
H 	H 	0.48744 0.75462 0.07665 0.03500
H 	H 	0.50669 0.77197 0.92167 0.03500
H 	H 	0.51800 0.70394 0.06528 0.04100
H 	H 	0.51672 0.64325 0.06088 0.03700
H 	H 	0.49906 0.65687 0.94810 0.03900
C 	C 	0.50066 0.72350 0.94541 -0.04400
H 	H 	0.50123 0.71241 0.91835 0.03600
C 	C 	0.54378 0.29511 0.01300 -0.04300
C 	C 	0.51873 0.32141 0.00372 0.00800
C 	C 	0.48992 0.31364 0.99116 0.00500
C 	C 	0.48386 0.27936 0.99370 -0.00400
C 	C 	0.53982 0.26127 0.01173 -0.03800
C 	C 	0.50876 0.25314 0.00522 0.00300
C 	C 	0.52271 0.35548 0.00583 -0.01400
C 	C 	0.49873 0.38194 0.99469 -0.08200
C 	C 	0.46864 0.34009 0.97543 -0.05600
C 	C 	0.45323 0.27090 0.98616 -0.03600
C 	C 	0.47441 0.21083 0.99489 0.00600
C 	C 	0.50248 0.21903 0.00845 0.00700
C 	C 	0.52261 0.19333 0.02628 -0.05200
C 	C 	0.51885 0.15933 0.02440 -0.00100
C 	C 	0.49411 0.15056 0.00607 -0.06200
C 	C 	0.47071 0.17660 0.99313 -0.02700
C 	C 	0.47250 0.37401 0.97817 0.00500
H 	H 	0.45493 0.39409 0.96757 0.04000
H 	H 	0.45032 0.33459 0.95958 0.04100
H 	H 	0.54424 0.36142 0.01656 0.02200
H 	H 	0.56707 0.30082 0.02011 0.03400
H 	H 	0.56148 0.24149 0.01461 0.03700
H 	H 	0.43153 0.29042 0.98288 0.03500
H 	H 	0.53995 0.19959 0.04302 0.04100
H 	H 	0.53529 0.13983 0.03718 0.04400
H 	H 	0.44989 0.17025 0.98145 0.03200
C 	C 	0.44972 0.23688 0.98448 -0.04500
H 	H 	0.42691 0.23090 0.97650 0.03400
C 	C 	0.53280 0.96216 0.70287 -0.04200
C 	C 	0.51989 0.98807 0.68003 0.00700
C 	C 	0.50405 0.02068 0.69563 0.00700
C 	C 	0.49651 0.02524 0.73556 -0.00100
C 	C 	0.52932 0.96787 0.74119 -0.03700
C 	C 	0.50878 0.99814 0.75857 -0.00000
C 	C 	0.52453 0.98227 0.64125 -0.01500
C 	C 	0.51559 0.00915 0.61734 -0.07500
C 	C 	0.49772 0.04814 0.67088 -0.05500
C 	C 	0.47623 0.05564 0.75295 -0.03700
C 	C 	0.48501 0.03506 0.81423 0.00700
C 	C 	0.50090 0.00251 0.79851 0.00600
C 	C 	0.50674 0.97484 0.82311 -0.05500
C 	C 	0.50103 0.98050 0.86189 0.00200
C 	C 	0.48796 0.01336 0.87702 -0.07500
C 	C 	0.47972 0.04053 0.85316 -0.01600
C 	C 	0.50274 0.04214 0.63221 0.00300
H 	H 	0.49717 0.06332 0.61372 0.03000
H 	H 	0.49101 0.07424 0.68089 0.04000
H 	H 	0.53609 0.95705 0.62952 0.03700
H 	H 	0.54707 0.93792 0.69055 0.03600
H 	H 	0.54373 0.94919 0.75684 0.03500
H 	H 	0.46207 0.07452 0.73730 0.03500
H 	H 	0.51360 0.94882 0.81283 0.04000
H 	H 	0.50618 0.95913 0.88028 0.03000
H 	H 	0.46808 0.06569 0.86502 0.03700
C 	C 	0.47259 0.06119 0.79135 -0.04300
H 	H 	0.45844 0.08547 0.80369 0.03600
C 	C 	0.52554 0.04402 0.28860 -0.04400
C 	C 	0.51203 0.01920 0.31212 0.00800
C 	C 	0.49510 0.99592 0.29784 0.00500
C 	C 	0.49619 0.99501 0.25831 -0.00100
C 	C 	0.52246 0.04609 0.25112 -0.03700
C 	C 	0.51037 0.02028 0.23470 -0.00100
C 	C 	0.51271 0.01931 0.35059 -0.02200
C 	C 	0.49384 0.99886 0.37577 -0.07500
C 	C 	0.47565 0.97582 0.32359 -0.05400
C 	C 	0.48419 0.96914 0.24188 -0.03700
C 	C 	0.49440 0.99614 0.18093 0.00800
C 	C 	0.51133 0.01944 0.19519 0.00500
C 	C 	0.53056 0.03971 0.16944 -0.05400
C 	C 	0.53012 0.03897 0.13112 0.00300
C 	C 	0.51200 0.01693 0.11736 -0.07500
C 	C 	0.49346 0.99620 0.14252 -0.02200
C 	C 	0.47577 0.97680 0.36197 0.00200
H 	H 	0.46014 0.96173 0.38124 0.04400
H 	H 	0.45841 0.96141 0.31472 0.04100
H 	H 	0.52654 0.03657 0.36120 0.04000
H 	H 	0.53660 0.06320 0.29999 0.03700
H 	H 	0.52812 0.06858 0.23559 0.03600
H 	H 	0.47860 0.94663 0.25742 0.03600
H 	H 	0.54786 0.05410 0.17822 0.04200
H 	H 	0.54548 0.05427 0.11186 0.04400
H 	H 	0.47961 0.97895 0.13195 0.04000
C 	C 	0.48108 0.97121 0.20442 -0.04400
H 	H 	0.47007 0.95199 0.19302 0.03700
C 	C 	0.69488 0.47239 0.55590 -0.04400
C 	C 	0.67500 0.48981 0.53155 0.00800
C 	C 	0.69137 0.50508 0.49866 0.00500
C 	C 	0.72731 0.50692 0.49354 -0.00100
C 	C 	0.73068 0.47051 0.54849 -0.03700
C 	C 	0.74698 0.48980 0.51920 -0.00100
C 	C 	0.63906 0.49051 0.53870 -0.02200
C 	C 	0.61948 0.50448 0.51231 -0.07400
C 	C 	0.67190 0.51653 0.47095 -0.05400
C 	C 	0.74365 0.52614 0.46421 -0.03700
C 	C 	0.79934 0.50668 0.48108 0.00800
C 	C 	0.78292 0.49160 0.51407 0.00600
C 	C 	0.80234 0.48028 0.54184 -0.05400
C 	C 	0.83810 0.47961 0.53446 0.00000
C 	C 	0.85491 0.49166 0.50019 -0.07400
C 	C 	0.83533 0.50572 0.47381 -0.02200
C 	C 	0.63617 0.51695 0.47824 -0.00000
H 	H 	0.62163 0.52611 0.45684 0.03100
H 	H 	0.68439 0.52315 0.44307 0.04000
H 	H 	0.62645 0.47995 0.56467 0.04200
H 	H 	0.68274 0.45880 0.57979 0.03600
H 	H 	0.74564 0.45301 0.56474 0.03600
H 	H 	0.72872 0.54369 0.44798 0.03600
H 	H 	0.78979 0.47394 0.56981 0.04000
H 	H 	0.85260 0.47051 0.55592 0.03300
H 	H 	0.84798 0.51612 0.44777 0.04100
C 	C 	0.77949 0.52414 0.45673 -0.04400
H 	H 	0.79165 0.53764 0.43278 0.03600
C 	C 	0.18752 0.49016 0.55968 -0.04400
C 	C 	0.17464 0.48970 0.52683 0.00800
C 	C 	0.19530 0.49620 0.49160 0.00500
C 	C 	0.23090 0.49819 0.48926 -0.00100
C 	C 	0.22085 0.49633 0.55799 -0.03700
C 	C 	0.24385 0.49770 0.52294 -0.00100
C 	C 	0.14042 0.48499 0.52916 -0.01900
C 	C 	0.12572 0.48884 0.49716 -0.07300
C 	C 	0.17941 0.50236 0.46014 -0.05400
C 	C 	0.25389 0.49972 0.45421 -0.03600
C 	C 	0.30006 0.50635 0.48543 0.00800
C 	C 	0.27946 0.49962 0.52060 0.00500
C 	C 	0.29541 0.49310 0.55197 -0.05400
C 	C 	0.32964 0.49744 0.54928 -0.00000
C 	C 	0.34906 0.50682 0.51509 -0.07300
C 	C 	0.33428 0.51106 0.48315 -0.01900
C 	C 	0.14523 0.49787 0.46285 -0.00000
H 	H 	0.13365 0.50222 0.43834 0.03000
H 	H 	0.19241 0.51260 0.43437 0.04000
H 	H 	0.12484 0.47957 0.55615 0.04400
H 	H 	0.17099 0.48741 0.58693 0.03700
H 	H 	0.22806 0.50134 0.58402 0.03500
H 	H 	0.24673 0.49471 0.42816 0.03600
H 	H 	0.28242 0.48269 0.57764 0.04000
H 	H 	0.34132 0.49274 0.57368 0.02900
H 	H 	0.34981 0.51675 0.45624 0.04500
C 	C 	0.28716 0.50604 0.45258 -0.04400
H 	H 	0.30366 0.50895 0.42535 0.03800
C 	C 	0.80220 0.50385 0.94734 -0.04400
C 	C 	0.81803 0.50289 0.97825 0.00700
C 	C 	0.79928 0.49709 0.01477 0.00700
C 	C 	0.76287 0.49747 0.02049 0.00200
C 	C 	0.76779 0.49993 0.95227 -0.03700
C 	C 	0.74693 0.49960 0.98878 -0.00300
C 	C 	0.85322 0.50531 0.97265 -0.02600
C 	C 	0.87060 0.49969 0.00256 -0.06300
C 	C 	0.81767 0.48925 0.04409 -0.05200
C 	C 	0.74203 0.49673 0.05698 -0.03600
C 	C 	0.69159 0.49469 0.03093 0.01400
C 	C 	0.71046 0.50053 0.99447 0.00000
C 	C 	0.69210 0.50925 0.96526 -0.05000
C 	C 	0.65674 0.50827 0.97133 -0.00700
C 	C 	0.63870 0.50007 0.00680 -0.06600
C 	C 	0.65617 0.49322 0.03654 -0.02200
C 	C 	0.85277 0.49138 0.03811 -0.00400
H 	H 	0.86638 0.48564 0.06097 0.03000
H 	H 	0.80576 0.47941 0.07065 0.04000
H 	H 	0.86740 0.51017 0.94470 0.04400
H 	H 	0.81715 0.50593 0.91906 0.03700
H 	H 	0.75798 0.49583 0.92760 0.03500
H 	H 	0.75185 0.50045 0.08173 0.03600
H 	H 	0.70432 0.51895 0.93876 0.03900
H 	H 	0.64310 0.51489 0.94861 0.02800
H 	H 	0.64187 0.48833 0.06442 0.04500
C 	C 	0.70755 0.49298 0.06181 -0.04500
H 	H 	0.69262 0.49067 0.09005 0.03900
C 	C 	0.19909 0.55009 0.00838 -0.04900
C 	C 	0.19031 0.51925 0.00006 0.02200
C 	C 	0.21465 0.48848 0.99906 -0.00600
C 	C 	0.24957 0.48985 0.00080 0.01400
C 	C 	0.23186 0.55087 0.01512 -0.03000
C 	C 	0.25827 0.52155 0.00858 -0.00800
C 	C 	0.15661 0.51852 0.99522 -0.02600
C 	C 	0.14611 0.48724 0.99208 -0.06900
C 	C 	0.20303 0.45717 0.99857 -0.05400
C 	C 	0.27598 0.46059 0.99394 -0.05200
C 	C 	0.31755 0.49202 0.00914 0.00200
C 	C 	0.29321 0.52285 0.01050 0.01300
C 	C 	0.30487 0.55413 0.01149 -0.05800
C 	C 	0.33870 0.55442 0.01545 0.00700
C 	C 	0.36205 0.52375 0.01673 -0.07500
C 	C 	0.35133 0.49260 0.01372 -0.01300
C 	C 	0.16941 0.45667 0.99419 0.00200
H 	H 	0.16104 0.43238 0.99394 0.02300
H 	H 	0.21895 0.43335 0.00402 0.04200
H 	H 	0.13840 0.54224 0.99472 0.04800
H 	H 	0.17982 0.57337 0.01162 0.04200
H 	H 	0.23600 0.57393 0.02687 0.03500
H 	H 	0.27178 0.43761 0.98204 0.03900
H 	H 	0.28888 0.57808 0.00666 0.04100
H 	H 	0.34719 0.57864 0.01587 0.02500
H 	H 	0.36952 0.46882 0.01391 0.04500
C 	C 	0.30875 0.46127 0.00061 -0.02800
H 	H 	0.32802 0.43799 0.99710 0.03200
C 	C 	0.01855 0.53060 0.78556 -0.04500
C 	C 	0.00560 0.50639 0.81048 0.00800
C 	C 	0.98740 0.48313 0.79825 0.00500
C 	C 	0.98691 0.48130 0.75913 -0.00100
C 	C 	0.01409 0.53176 0.74856 -0.03700
C 	C 	0.00106 0.50561 0.73396 -0.00100
C 	C 	0.00834 0.50699 0.84834 -0.02200
C 	C 	0.99045 0.48692 0.87504 -0.07600
C 	C 	0.96852 0.46384 0.82561 -0.05400
C 	C 	0.97359 0.45532 0.74457 -0.03700
C 	C 	0.98347 0.47987 0.68224 0.00800
C 	C 	0.00122 0.50342 0.69473 0.00500
C 	C 	0.02058 0.52246 0.66754 -0.05400
C 	C 	0.01967 0.52020 0.62948 0.00200
C 	C 	0.00092 0.49781 0.61739 -0.07500
C 	C 	0.98213 0.47836 0.64400 -0.02300
C 	C 	0.97074 0.46524 0.86340 0.00200
H 	H 	0.95566 0.45067 0.88392 0.04300
H 	H 	0.95021 0.44973 0.81849 0.04100
H 	H 	0.02326 0.52411 0.85729 0.04000
H 	H 	0.03042 0.54992 0.79548 0.03700
H 	H 	0.01950 0.55379 0.73197 0.03600
H 	H 	0.96756 0.43359 0.76135 0.03600
H 	H 	0.03832 0.53703 0.67509 0.04100
H 	H 	0.03522 0.53451 0.60913 0.04500
H 	H 	0.96780 0.46083 0.63472 0.04000
C 	C 	0.96976 0.45616 0.70733 -0.04500
H 	H 	0.95790 0.43685 0.69737 0.03700
C 	C 	0.00222 0.43466 0.20011 -0.04400
C 	C 	0.02080 0.45670 0.17721 0.00900
C 	C 	0.03444 0.48134 0.19378 0.00600
C 	C 	0.03328 0.48035 0.23325 -0.00100
C 	C 	0.99640 0.43722 0.23925 -0.03600
C 	C 	0.01296 0.45894 0.25647 -0.00100
C 	C 	0.02396 0.45590 0.13793 -0.02200
C 	C 	0.03808 0.48108 0.11548 -0.07300
C 	C 	0.04662 0.50778 0.17105 -0.05400
C 	C 	0.05254 0.49960 0.24974 -0.03600
C 	C 	0.02361 0.48537 0.31209 0.00900
C 	C 	0.00889 0.46091 0.29653 0.00500
C 	C 	0.99065 0.43923 0.32140 -0.05400
C 	C 	0.98213 0.44594 0.36017 0.00100
C 	C 	0.99329 0.47299 0.37499 -0.07500
C 	C 	0.01560 0.49134 0.35112 -0.02300
C 	C 	0.04886 0.50722 0.13219 0.00800
H 	H 	0.05866 0.52742 0.11506 0.03800
H 	H 	0.05251 0.52972 0.18341 0.04200
H 	H 	0.01458 0.43631 0.12501 0.03500
H 	H 	0.99044 0.41674 0.18762 0.03800
H 	H 	0.97811 0.42309 0.25571 0.03600
H 	H 	0.07289 0.51106 0.23259 0.03700
H 	H 	0.98444 0.41643 0.31142 0.04000
H 	H 	0.96668 0.43016 0.37861 0.04300
H 	H 	0.02611 0.51081 0.36280 0.03900
C 	C 	0.04645 0.50332 0.28865 -0.04400
H 	H 	0.05998 0.51995 0.30066 0.03700
C 	C 	0.95510 0.78854 0.50054 -0.04300
C 	C 	0.98651 0.80039 0.49140 0.00800
C 	C 	0.01834 0.77694 0.48579 0.00700
C 	C 	0.01803 0.74128 0.48427 -0.00100
C 	C 	0.95481 0.75376 0.50405 -0.03600
C 	C 	0.98578 0.72968 0.49321 -0.00000
C 	C 	0.98642 0.83559 0.49090 -0.01500
C 	C 	0.01747 0.84776 0.48802 -0.07300
C 	C 	0.04934 0.78954 0.48435 -0.05500
C 	C 	0.04898 0.71720 0.47331 -0.03600
C 	C 	0.01734 0.67058 0.48663 0.00800
C 	C 	0.98550 0.69400 0.49200 0.00600
C 	C 	0.95451 0.68130 0.49373 -0.05500
C 	C 	0.95500 0.64620 0.49436 0.00100
C 	C 	0.98633 0.62313 0.49157 -0.07300
C 	C 	0.01743 0.63536 0.48795 -0.01500
C 	C 	0.04883 0.82463 0.48465 0.00100
H 	H 	0.07277 0.83384 0.48372 0.01400
H 	H 	0.07336 0.77256 0.48568 0.03900
H 	H 	0.96198 0.85347 0.49491 0.04700
H 	H 	0.93075 0.80647 0.50716 0.03800
H 	H 	0.93066 0.74585 0.51670 0.03500
H 	H 	0.07308 0.72511 0.46045 0.03500
H 	H 	0.93053 0.69816 0.49196 0.03900
H 	H 	0.93104 0.63690 0.49568 0.01300
H 	H 	0.04186 0.61749 0.48422 0.04800
C 	C 	0.04873 0.68243 0.47707 -0.04300
H 	H 	0.07308 0.66450 0.47045 0.03900
C 	C 	0.97920 0.20231 0.45028 -0.04400
C 	C 	0.99155 0.17831 0.47537 0.00800
C 	C 	0.00215 0.18920 0.50707 0.00500
C 	C 	0.00541 0.22401 0.50987 -0.00000
C 	C 	0.97837 0.23689 0.45550 -0.03700
C 	C 	0.99395 0.24793 0.48321 -0.00000
C 	C 	0.99198 0.14357 0.46996 -0.02200
C 	C 	0.00116 0.11961 0.49687 -0.07300
C 	C 	0.00780 0.16538 0.53579 -0.05300
C 	C 	0.02075 0.23515 0.53777 -0.03700
C 	C 	0.00771 0.29369 0.51765 0.00800
C 	C 	0.99737 0.28268 0.48585 0.00600
C 	C 	0.99217 0.30629 0.45685 -0.05300
C 	C 	0.99185 0.34087 0.46226 0.00100
C 	C 	0.99836 0.35227 0.49572 -0.07400
C 	C 	0.00726 0.32849 0.52291 -0.02200
C 	C 	0.00812 0.13080 0.53020 0.00100
H 	H 	0.01316 0.11277 0.55215 0.03800
H 	H 	0.01000 0.17356 0.56310 0.04100
H 	H 	0.98532 0.13520 0.44475 0.04000
H 	H 	0.96882 0.19428 0.42744 0.03600
H 	H 	0.96447 0.25496 0.43878 0.03700
H 	H 	0.03454 0.21716 0.55462 0.03600
H 	H 	0.99027 0.29791 0.42949 0.04100
H 	H 	0.98709 0.35877 0.44010 0.03600
H 	H 	0.01364 0.33701 0.54821 0.04000
C 	C 	0.01980 0.26978 0.54297 -0.04400
H 	H 	0.02997 0.27789 0.56592 0.03600
C 	C 	0.72128 0.94742 0.50959 -0.04300
C 	C 	0.69966 0.97511 0.49719 0.00700
C 	C 	0.71193 0.00588 0.48705 0.00600
C 	C 	0.74778 0.00672 0.48449 -0.00100
C 	C 	0.75497 0.94976 0.51189 -0.03700
C 	C 	0.76956 0.97811 0.49678 -0.00100
C 	C 	0.66499 0.97321 0.49760 -0.02000
C 	C 	0.64153 0.00241 0.49121 -0.07400
C 	C 	0.68774 0.03547 0.48207 -0.05400
C 	C 	0.76240 0.03500 0.46924 -0.03700
C 	C 	0.81754 0.00990 0.48451 0.00700
C 	C 	0.80536 0.97907 0.49450 0.00600
C 	C 	0.82955 0.94960 0.49982 -0.05500
C 	C 	0.86397 0.95187 0.49938 0.00600
C 	C 	0.87539 0.98303 0.49186 -0.07400
C 	C 	0.85203 0.01204 0.48478 -0.02000
C 	C 	0.65313 0.03345 0.48329 0.00600
H 	H 	0.63498 0.05648 0.47984 0.04300
H 	H 	0.69482 0.06040 0.47991 0.04200
H 	H 	0.65596 0.94929 0.50428 0.02300
H 	H 	0.71130 0.92459 0.51960 0.03400
H 	H 	0.76897 0.93011 0.52686 0.03500
H 	H 	0.74846 0.05454 0.45408 0.03600
H 	H 	0.82267 0.92459 0.50165 0.04100
H 	H 	0.88212 0.92895 0.50319 0.04100
H 	H 	0.86097 0.03603 0.47827 0.02300
C 	C 	0.79602 0.03745 0.47173 -0.04300
H 	H 	0.80600 0.06027 0.46168 0.03400
C 	C 	0.20901 0.98494 0.55164 -0.04400
C 	C 	0.19490 0.98486 0.51958 0.00800
C 	C 	0.21460 0.99142 0.48383 0.00500
C 	C 	0.25043 0.99300 0.48008 -0.00100
C 	C 	0.24258 0.99094 0.54865 -0.03700
C 	C 	0.26458 0.99243 0.51295 -0.00100
C 	C 	0.16038 0.98058 0.52325 -0.01900
C 	C 	0.14450 0.98507 0.49212 -0.07400
C 	C 	0.19758 0.99817 0.45330 -0.05400
C 	C 	0.27247 0.99423 0.44438 -0.03700
C 	C 	0.31996 0.00097 0.47338 0.00800
C 	C 	0.30035 0.99436 0.50918 0.00500
C 	C 	0.31741 0.98807 0.53974 -0.05400
C 	C 	0.35173 0.99259 0.53565 -0.00000
C 	C 	0.37013 0.00189 0.50084 -0.07400
C 	C 	0.35428 0.00582 0.46969 -0.01900
C 	C 	0.16311 0.99421 0.45735 0.00000
H 	H 	0.15060 0.99905 0.43355 0.02900
H 	H 	0.20997 0.00848 0.42725 0.04000
H 	H 	0.14550 0.97507 0.55060 0.04400
H 	H 	0.19325 0.98210 0.57933 0.03700
H 	H 	0.25072 0.99577 0.57417 0.03500
H 	H 	0.26437 0.98911 0.41891 0.03500
H 	H 	0.30521 0.97767 0.56582 0.04000
H 	H 	0.36428 0.98809 0.55944 0.02900
H 	H 	0.36905 0.01139 0.44230 0.04400
C 	C 	0.30595 0.00044 0.44132 -0.04400
H 	H 	0.32171 0.00317 0.41361 0.03700
C 	C 	0.00523 0.78293 0.04895 -0.04500
C 	C 	0.00874 0.80336 0.01689 0.01100
C 	C 	0.00882 0.78959 0.98142 0.00100
C 	C 	0.01043 0.75366 0.97780 -0.00300
C 	C 	0.00240 0.74885 0.04623 -0.03600
C 	C 	0.00762 0.73306 0.01067 0.00100
C 	C 	0.01003 0.83809 0.02036 -0.01900
C 	C 	0.00918 0.85984 0.98933 -0.07300
C 	C 	0.00543 0.81223 0.95108 -0.05300
C 	C 	0.01574 0.73787 0.94223 -0.03700
C 	C 	0.00920 0.68338 0.97158 0.00400
C 	C 	0.00910 0.69715 0.00706 0.00900
C 	C 	0.01220 0.67453 0.03747 -0.05500
C 	C 	0.01070 0.64005 0.03376 0.00300
C 	C 	0.00789 0.62706 0.99935 -0.07500
C 	C 	0.00758 0.64872 0.96817 -0.02200
C 	C 	0.00640 0.84684 0.95492 -0.00100
H 	H 	0.00436 0.86367 0.93121 0.03600
H 	H 	0.99997 0.80383 0.92536 0.04000
H 	H 	0.01057 0.84837 0.04749 0.04200
H 	H 	0.00294 0.79393 0.07650 0.03700
H 	H 	0.99479 0.73535 0.07194 0.03600
H 	H 	0.02339 0.75137 0.91653 0.03500
H 	H 	0.01776 0.68285 0.06316 0.04100
H 	H 	0.01229 0.62331 0.05762 0.03600
H 	H 	0.00699 0.63848 0.94104 0.04000
C 	C 	0.01291 0.70378 0.93949 -0.04400
H 	H 	0.01525 0.69276 0.91194 0.03600
C 	C 	0.94787 0.29829 0.01919 -0.04300
C 	C 	0.97808 0.31151 0.01774 0.00800
C 	C 	0.00942 0.28923 0.02005 0.00600
C 	C 	0.01141 0.25323 0.01707 -0.00100
C 	C 	0.94870 0.26320 0.02149 -0.03600
C 	C 	0.98068 0.24018 0.01696 -0.00000
C 	C 	0.97688 0.34701 0.01614 -0.01600
C 	C 	0.00603 0.36060 0.01932 -0.07800
C 	C 	0.03739 0.30339 0.02689 -0.05600
C 	C 	0.04343 0.23035 0.01253 -0.03600
C 	C 	0.01476 0.18192 0.01236 0.01000
C 	C 	0.98282 0.20425 0.01251 0.00600
C 	C 	0.95460 0.19039 0.00571 -0.05500
C 	C 	0.95737 0.15514 0.00213 0.00300
C 	C 	0.98868 0.13303 0.00319 -0.06700
C 	C 	0.01715 0.14646 0.00898 -0.01900
C 	C 	0.03591 0.33868 0.02559 -0.00000
H 	H 	0.05802 0.34898 0.02974 0.01300
H 	H 	0.05941 0.28758 0.03528 0.03900
H 	H 	0.95314 0.36399 0.01318 0.04700
H 	H 	0.92325 0.31535 0.02036 0.03900
H 	H 	0.92432 0.25428 0.02823 0.03600
H 	H 	0.06770 0.23950 0.00724 0.03500
H 	H 	0.93134 0.20663 0.00067 0.04000
H 	H 	0.93543 0.14509 0.99700 0.01300
H 	H 	0.04168 0.12953 0.00892 0.05100
C 	C 	0.04461 0.19524 0.01263 -0.04300
H 	H 	0.06940 0.17827 0.01069 0.04000
C 	C 	0.78905 0.04740 0.96801 -0.04300
C 	C 	0.81077 0.02000 0.98078 0.00500
C 	C 	0.79882 0.98907 0.99085 0.00700
C 	C 	0.76303 0.98787 0.99330 -0.00500
C 	C 	0.75542 0.04476 0.96579 -0.03800
C 	C 	0.74101 0.01643 0.98127 0.00000
C 	C 	0.84518 0.02244 0.98109 -0.02000
C 	C 	0.86871 0.99364 0.98835 -0.07500
C 	C 	0.82322 0.95976 0.99616 -0.05600
C 	C 	0.74866 0.95939 0.00840 -0.03300
C 	C 	0.69296 0.98472 0.99458 0.00500
C 	C 	0.70510 0.01553 0.98432 0.00500
C 	C 	0.68077 0.04512 0.97973 -0.05400
C 	C 	0.64610 0.04307 0.98139 0.00300
C 	C 	0.63457 0.01199 0.98939 -0.07100
C 	C 	0.65819 0.98279 0.99550 -0.02500
C 	C 	0.85756 0.96233 0.99580 0.00500
H 	H 	0.87585 0.93955 0.99972 0.04200
H 	H 	0.81655 0.93466 0.99800 0.04100
H 	H 	0.85389 0.04654 0.97461 0.02300
H 	H 	0.79887 0.07028 0.95785 0.03400
H 	H 	0.74129 0.06420 0.95070 0.03600
H 	H 	0.76292 0.93966 0.02303 0.03600
H 	H 	0.68782 0.07006 0.97753 0.04100
H 	H 	0.62787 0.06610 0.97817 0.04200
H 	H 	0.64924 0.95884 0.00227 0.02800
C 	C 	0.71486 0.95700 0.00655 -0.04100
H 	H 	0.70504 0.93409 0.01658 0.03500
C 	C 	0.20070 0.99810 0.05231 -0.04400
C 	C 	0.18650 0.99893 0.02022 0.01000
C 	C 	0.20596 0.00673 0.98480 0.00200
C 	C 	0.24170 0.00863 0.98122 -0.00400
C 	C 	0.23415 0.00432 0.04965 -0.03700
C 	C 	0.25599 0.00698 0.01410 0.00300
C 	C 	0.15213 0.99428 0.02360 -0.01600
C 	C 	0.13611 0.99955 0.99259 -0.07600
C 	C 	0.18875 0.01427 0.95449 -0.05400
C 	C 	0.26354 0.01119 0.94566 -0.03600
C 	C 	0.31113 0.01681 0.97507 0.00700
C 	C 	0.29172 0.00899 0.01051 0.00700
C 	C 	0.30897 0.00155 0.04081 -0.05200
C 	C 	0.34331 0.00593 0.03695 -0.00300
C 	C 	0.36156 0.01627 0.00257 -0.06300
C 	C 	0.34546 0.02155 0.97164 -0.02500
C 	C 	0.15444 0.00989 0.95825 -0.00000
H 	H 	0.14180 0.01535 0.93460 0.02900
H 	H 	0.20086 0.02550 0.92890 0.04000
H 	H 	0.13746 0.98782 0.05068 0.04400
H 	H 	0.18509 0.99434 0.07983 0.03800
H 	H 	0.24233 0.00839 0.07537 0.03500
H 	H 	0.25539 0.00700 0.91996 0.03500
H 	H 	0.29690 0.99037 0.06645 0.04000
H 	H 	0.35602 0.00046 0.06054 0.03100
H 	H 	0.36007 0.02803 0.94453 0.04600
C 	C 	0.29695 0.01751 0.94298 -0.04400
H 	H 	0.31255 0.02124 0.91545 0.03800
C 	C 	0.96725 0.96361 0.79193 -0.04400
C 	C 	0.98738 0.97903 0.81098 0.00800
C 	C 	0.01447 0.99461 0.79042 0.00600
C 	C 	0.01738 0.99929 0.75083 -0.00000
C 	C 	0.97266 0.96468 0.75282 -0.03600
C 	C 	0.99564 0.98468 0.73206 -0.00100
C 	C 	0.98126 0.97838 0.85048 -0.01800
C 	C 	0.00252 0.99227 0.86958 -0.07500
C 	C 	0.03839 0.00421 0.80980 -0.05500
C 	C 	0.04057 0.01904 0.72995 -0.03700
C 	C 	0.02592 0.00442 0.67183 0.00700
C 	C 	0.99852 0.98937 0.69252 0.00600
C 	C 	0.97429 0.98021 0.67330 -0.05500
C 	C 	0.98100 0.98005 0.63399 0.00200
C 	C 	0.01074 0.99081 0.61338 -0.07600
C 	C 	0.03223 0.00457 0.63230 -0.01700
C 	C 	0.03176 0.00398 0.84912 0.00100
H 	H 	0.04936 0.01305 0.86372 0.02400
H 	H 	0.06271 0.01041 0.79479 0.04000
H 	H 	0.95930 0.96819 0.86633 0.04900
H 	H 	0.94806 0.94966 0.80742 0.03900
H 	H 	0.95979 0.94898 0.73884 0.03700
H 	H 	0.05345 0.03480 0.74382 0.03600
H 	H 	0.94975 0.97459 0.68842 0.04000
H 	H 	0.96320 0.97120 0.61950 0.02400
H 	H 	0.05454 0.01414 0.61633 0.04700
C 	C 	0.04618 0.01976 0.69079 -0.04400
H 	H 	0.06560 0.03340 0.67521 0.03800
C 	C 	0.97767 0.95691 0.20262 -0.04400
C 	C 	0.99455 0.97891 0.17782 0.00800
C 	C 	0.01117 0.00266 0.19170 0.00500
C 	C 	0.01565 0.00007 0.22966 -0.00100
C 	C 	0.97826 0.95724 0.24080 -0.03700
C 	C 	0.99930 0.97671 0.25432 -0.00100
C 	C 	0.99420 0.97811 0.13930 -0.02200
C 	C 	0.00947 0.00141 0.11464 -0.07500
C 	C 	0.02175 0.02901 0.16772 -0.05400
C 	C 	0.03699 0.01927 0.24302 -0.03700
C 	C 	0.02021 0.99818 0.30615 0.00800
C 	C 	0.00345 0.97445 0.29242 0.00500
C 	C 	0.99216 0.94864 0.31683 -0.05300
C 	C 	0.99159 0.95049 0.35530 0.00300
C 	C 	0.00388 0.97701 0.36972 -0.07500
C 	C 	0.02003 0.99955 0.34475 -0.02200
C 	C 	0.02164 0.02786 0.12936 0.00300
H 	H 	0.03140 0.04737 0.11105 0.04400
H 	H 	0.02863 0.05107 0.17871 0.04100
H 	H 	0.98261 0.95903 0.12846 0.04100
H 	H 	0.96291 0.94029 0.19254 0.03700
H 	H 	0.96139 0.94322 0.25977 0.03700
H 	H 	0.05404 0.03303 0.22391 0.03600
H 	H 	0.98526 0.92646 0.30614 0.04100
H 	H 	0.98122 0.93147 0.37392 0.04400
H 	H 	0.03177 0.01860 0.35543 0.04100
C 	C 	0.03757 0.01972 0.28117 -0.04500
H 	H 	0.05253 0.03619 0.29115 0.03700
