data_crystal

_cell_length_a 35.10900
_cell_length_b 58.30865
_cell_length_c 17.86867
_cell_angle_alpha 89.99990
_cell_angle_beta  89.99992
_cell_angle_gamma 91.53884

_symmetry_space_group_name_	'P 1'
_symmetry_space_group_name_H-M	'P 1'

loop_
_symmetry_equiv_pos_as_xyz
  x,y,z

loop_
_atom_site_label
_atom_site_type_symbol
_atom_site_fract_x
_atom_site_fract_y
_atom_site_fract_z
_atom_site_charge
Cu	Cu	0.60958 0.79534 0.94500 0.93100
Cu	Cu	0.57935 0.84657 0.98266 0.87500
Cu	Cu	0.55120 0.80420 0.06804 0.89500
Cu	Cu	0.58417 0.75618 0.05762 0.89400
C 	C 	0.65926 0.75882 0.98080 0.29800
O 	O 	0.57858 0.77242 0.88385 -0.35700
C 	C 	0.50898 0.84695 0.05725 0.27600
O 	O 	0.59809 0.78785 0.05855 -0.63800
O 	O 	0.56525 0.81454 0.96459 -0.63800
O 	O 	0.64408 0.81976 0.90424 -0.37200
O 	O 	0.63225 0.84400 0.99965 -0.43500
O 	O 	0.62952 0.74576 0.00003 -0.38700
O 	O 	0.53944 0.79266 0.16738 -0.37700
C 	C 	0.53519 0.77065 0.18329 0.28400
C 	C 	0.54517 0.76452 0.90673 0.28000
O 	O 	0.53813 0.76255 0.97877 -0.38600
O 	O 	0.55993 0.75572 0.15862 -0.38900
O 	O 	0.65477 0.77819 0.94445 -0.36300
C 	C 	0.65427 0.83760 0.94483 0.29600
O 	O 	0.50925 0.82558 0.08208 -0.37600
O 	O 	0.52708 0.85289 0.99565 -0.40600
H 	H 	0.61789 0.79230 0.09566 0.16200
H 	H 	0.54397 0.81252 0.92869 0.17200
Cu	Cu	0.87191 0.69930 0.92913 0.92900
Cu	Cu	0.91303 0.65123 0.96396 0.87000
Cu	Cu	0.93525 0.69459 0.04435 0.89400
Cu	Cu	0.88908 0.73840 0.04822 0.89300
C 	C 	0.81449 0.73063 0.97347 0.28900
O 	O 	0.89721 0.72497 0.86899 -0.36200
C 	C 	0.98737 0.65652 0.02296 0.27700
O 	O 	0.88391 0.70607 0.04286 -0.63800
O 	O 	0.92034 0.68376 0.94243 -0.64000
O 	O 	0.84196 0.67220 0.89279 -0.37300
O 	O 	0.86060 0.65029 0.98970 -0.43800
O 	O 	0.84116 0.74567 0.99410 -0.38000
O 	O 	0.94778 0.70564 0.14403 -0.38000
C 	C 	0.94420 0.72709 0.16589 0.28700
C 	C 	0.92708 0.73684 0.89395 0.28000
O 	O 	0.93471 0.73748 0.96603 -0.38900
O 	O 	0.91355 0.73856 0.14844 -0.38700
O 	O 	0.82303 0.71252 0.93359 -0.36200
C 	C 	0.83524 0.65504 0.93867 0.29100
O 	O 	0.98298 0.67766 0.04802 -0.37500
O 	O 	0.96675 0.64837 0.96708 -0.41400
H 	H 	0.86663 0.69897 0.08058 0.16100
H 	H 	0.93985 0.68727 0.90377 0.17300
Cu	Cu	0.77657 0.45053 0.24916 0.92900
Cu	Cu	0.81858 0.40148 0.23089 0.87200
Cu	Cu	0.86033 0.44705 0.20721 0.89600
Cu	Cu	0.83167 0.49381 0.24378 0.89200
C 	C 	0.75918 0.49105 0.33194 0.29100
O 	O 	0.75999 0.46910 0.15998 -0.36300
C 	C 	0.88520 0.40380 0.14246 0.28000
O 	O 	0.83095 0.46329 0.27987 -0.63900
O 	O 	0.80980 0.43146 0.18694 -0.63800
O 	O 	0.74563 0.42549 0.29646 -0.36500
O 	O 	0.79817 0.40609 0.32740 -0.44000
O 	O 	0.78106 0.50301 0.28509 -0.38400
O 	O 	0.90833 0.46204 0.23433 -0.37900
C 	C 	0.91509 0.48444 0.23409 0.28700
C 	C 	0.78456 0.47738 0.11076 0.28200
O 	O 	0.82007 0.48165 0.13075 -0.39400
O 	O 	0.88812 0.49902 0.25115 -0.39100
O 	O 	0.75275 0.46886 0.32260 -0.36300
C 	C 	0.76157 0.40906 0.33421 0.29800
O 	O 	0.89014 0.42635 0.14475 -0.37300
O 	O 	0.85106 0.39426 0.14964 -0.41600
H 	H 	0.83936 0.46143 0.33236 0.16500
H 	H 	0.80312 0.43082 0.13313 0.17400
Cu	Cu	0.21174 0.55022 0.23291 0.92800
Cu	Cu	0.17067 0.59912 0.21074 0.87000
Cu	Cu	0.12731 0.55405 0.19411 0.89600
Cu	Cu	0.15462 0.50729 0.23785 0.89400
C 	C 	0.22424 0.51229 0.32945 0.29000
O 	O 	0.22683 0.53041 0.14569 -0.36400
C 	C 	0.10432 0.59690 0.12202 0.28200
O 	O 	0.15699 0.53841 0.26779 -0.63700
O 	O 	0.17810 0.56865 0.16994 -0.64000
O 	O 	0.24247 0.57593 0.27687 -0.37200
O 	O 	0.18971 0.59496 0.30875 -0.44000
O 	O 	0.20400 0.49878 0.28459 -0.38400
O 	O 	0.07905 0.54005 0.22499 -0.38000
C 	C 	0.07143 0.51777 0.22968 0.29000
C 	C 	0.20151 0.52099 0.10019 0.28300
O 	O 	0.16621 0.51739 0.12259 -0.39200
O 	O 	0.09807 0.50297 0.24644 -0.38900
O 	O 	0.23698 0.53252 0.30651 -0.36000
C 	C 	0.22609 0.59148 0.31777 0.29300
O 	O 	0.09734 0.57467 0.13131 -0.37500
O 	O 	0.13900 0.60573 0.12793 -0.41900
H 	H 	0.14922 0.54132 0.32012 0.16500
H 	H 	0.18422 0.56862 0.11587 0.17200
Cu	Cu	0.70895 0.54989 0.74222 0.92900
Cu	Cu	0.66759 0.59899 0.72308 0.87200
Cu	Cu	0.62339 0.55358 0.71088 0.89600
Cu	Cu	0.65388 0.50618 0.74424 0.89400
C 	C 	0.72364 0.51156 0.83500 0.29000
O 	O 	0.72328 0.53078 0.65305 -0.36000
C 	C 	0.59877 0.59718 0.64327 0.28000
O 	O 	0.65517 0.53695 0.77854 -0.63600
O 	O 	0.67365 0.56841 0.68286 -0.63900
O 	O 	0.73958 0.57558 0.78581 -0.37600
O 	O 	0.68740 0.59477 0.82074 -0.43800
O 	O 	0.70394 0.49803 0.78927 -0.38100
O 	O 	0.57665 0.53779 0.74205 -0.37700
C 	C 	0.57056 0.51534 0.73879 0.28600
C 	C 	0.69732 0.52338 0.60533 0.27900
O 	O 	0.66283 0.51790 0.62930 -0.39100
O 	O 	0.59778 0.50094 0.75560 -0.38900
O 	O 	0.73579 0.53200 0.81302 -0.36100
C 	C 	0.72365 0.59069 0.82914 0.29300
O 	O 	0.59055 0.57530 0.65766 -0.37700
O 	O 	0.63428 0.60482 0.64214 -0.41200
H 	H 	0.64841 0.53893 0.83187 0.16600
H 	H 	0.67849 0.56841 0.62828 0.17100
Cu	Cu	0.27630 0.44616 0.73204 0.92900
Cu	Cu	0.31808 0.39719 0.70939 0.87000
Cu	Cu	0.36075 0.44293 0.69323 0.89600
Cu	Cu	0.33271 0.48934 0.73889 0.89400
C 	C 	0.26303 0.48377 0.82977 0.28900
O 	O 	0.26120 0.46618 0.64558 -0.36200
C 	C 	0.38620 0.40039 0.62453 0.28100
O 	O 	0.33080 0.45807 0.76770 -0.63800
O 	O 	0.31028 0.42783 0.66901 -0.63900
O 	O 	0.24444 0.42057 0.77286 -0.36700
O 	O 	0.29583 0.40020 0.80555 -0.43700
O 	O 	0.28322 0.49750 0.78551 -0.38400
O 	O 	0.40882 0.45719 0.72394 -0.38100
C 	C 	0.41590 0.47949 0.72992 0.29100
C 	C 	0.28631 0.47589 0.60035 0.28300
O 	O 	0.32153 0.47975 0.62296 -0.39200
O 	O 	0.38903 0.49389 0.74863 -0.39000
O 	O 	0.25061 0.46357 0.80593 -0.35800
C 	C 	0.25935 0.40392 0.81121 0.29500
O 	O 	0.39086 0.42293 0.62889 -0.37400
O 	O 	0.35203 0.39067 0.62927 -0.41400
H 	H 	0.33852 0.45501 0.81998 0.16400
H 	H 	0.30423 0.42794 0.61489 0.17300
Cu	Cu	0.62268 0.29455 0.46035 0.92800
Cu	Cu	0.58253 0.34421 0.48005 0.86900
Cu	Cu	0.55682 0.30242 0.56954 0.89400
Cu	Cu	0.59922 0.25721 0.58074 0.89400
C 	C 	0.67707 0.26369 0.51922 0.28500
O 	O 	0.59819 0.26826 0.40269 -0.35800
C 	C 	0.50754 0.34149 0.53844 0.28100
O 	O 	0.60706 0.28945 0.57372 -0.63500
O 	O 	0.57452 0.31128 0.46689 -0.64100
O 	O 	0.65448 0.31981 0.41710 -0.37400
O 	O 	0.63521 0.34547 0.50321 -0.43900
O 	O 	0.64935 0.24890 0.53680 -0.38300
O 	O 	0.54040 0.29207 0.66835 -0.37600
C 	C 	0.54216 0.27072 0.69259 0.28800
C 	C 	0.56472 0.25959 0.42198 0.27700
O 	O 	0.55544 0.25811 0.49327 -0.38800
O 	O 	0.57195 0.25817 0.67795 -0.39000
O 	O 	0.67068 0.28031 0.47136 -0.35700
C 	C 	0.65999 0.33923 0.45286 0.29300
O 	O 	0.51045 0.32080 0.56804 -0.37400
O 	O 	0.52884 0.34804 0.48140 -0.41700
H 	H 	0.62402 0.29630 0.61243 0.16100
H 	H 	0.55535 0.30735 0.42808 0.17100
Cu	Cu	0.88728 0.20425 0.48093 0.92700
Cu	Cu	0.92359 0.15431 0.51296 0.87000
Cu	Cu	0.94725 0.19556 0.60130 0.89500
Cu	Cu	0.90959 0.24169 0.60198 0.89400
C 	C 	0.83355 0.23708 0.53081 0.28600
O 	O 	0.91489 0.22933 0.42265 -0.36200
C 	C 	0.99636 0.15563 0.58059 0.28600
O 	O 	0.89869 0.20980 0.59577 -0.63900
O 	O 	0.93435 0.18680 0.49579 -0.64000
O 	O 	0.85547 0.17910 0.43644 -0.37300
O 	O 	0.87044 0.15498 0.53007 -0.43400
O 	O 	0.86177 0.25119 0.55119 -0.38400
O 	O 	0.95540 0.20394 0.70474 -0.38400
C 	C 	0.95744 0.22524 0.72976 0.29100
C 	C 	0.94673 0.23909 0.44678 0.28300
O 	O 	0.95477 0.23909 0.51863 -0.38600
O 	O 	0.93643 0.24156 0.70085 -0.38900
O 	O 	0.83995 0.21971 0.48564 -0.35700
C 	C 	0.84828 0.16022 0.47419 0.28900
O 	O 	0.99219 0.17608 0.61125 -0.37800
O 	O 	0.97664 0.14922 0.52134 -0.41700
H 	H 	0.87968 0.20385 0.63236 0.16500
H 	H 	0.95520 0.19010 0.45972 0.17200
Cu	Cu	0.71970 0.05620 0.26569 0.93000
Cu	Cu	0.68317 0.10565 0.22980 0.87400
Cu	Cu	0.63587 0.06265 0.22665 0.89500
Cu	Cu	0.65873 0.01568 0.27849 0.89400
C 	C 	0.72950 0.01932 0.36793 0.29000
O 	O 	0.73268 0.03398 0.18354 -0.36200
C 	C 	0.61972 0.10345 0.13251 0.28900
O 	O 	0.66420 0.04713 0.30266 -0.63700
O 	O 	0.68795 0.07420 0.19790 -0.64300
O 	O 	0.75225 0.08185 0.30475 -0.37200
O 	O 	0.70090 0.10321 0.32932 -0.43400
O 	O 	0.70749 0.00612 0.32518 -0.38500
O 	O 	0.58664 0.05098 0.26151 -0.37700
C 	C 	0.57692 0.02904 0.26950 0.28700
C 	C 	0.70640 0.02513 0.13893 0.28500
O 	O 	0.67084 0.02321 0.16153 -0.39200
O 	O 	0.60214 0.01364 0.28896 -0.39000
O 	O 	0.74291 0.03925 0.34365 -0.36100
C 	C 	0.73690 0.09899 0.34009 0.29200
O 	O 	0.60734 0.08374 0.16205 -0.37900
O 	O 	0.65501 0.11103 0.14153 -0.41900
H 	H 	0.65715 0.05115 0.35459 0.16400
H 	H 	0.69372 0.07256 0.14399 0.17600
Cu	Cu	0.29524 0.94675 0.30041 0.92200
Cu	Cu	0.33995 0.90031 0.27534 0.87800
Cu	Cu	0.37697 0.95122 0.24490 0.90900
Cu	Cu	0.33747 0.99456 0.27836 0.89200
C 	C 	0.27095 0.98646 0.38118 0.28900
O 	O 	0.26892 0.96149 0.21213 -0.36200
C 	C 	0.40995 0.91002 0.20142 0.29400
O 	O 	0.34651 0.96548 0.31940 -0.64400
O 	O 	0.33059 0.93069 0.23359 -0.63600
O 	O 	0.27638 0.91989 0.36131 -0.37900
O 	O 	0.28863 0.89059 0.28154 -0.41900
O 	O 	0.28733 0.99960 0.32932 -0.38300
O 	O 	0.42208 0.97007 0.26341 -0.37600
C 	C 	0.42329 0.99261 0.27199 0.29000
C 	C 	0.28861 0.97159 0.15823 0.28200
O 	O 	0.32363 0.97905 0.17091 -0.39000
O 	O 	0.39224 0.00506 0.26947 -0.39000
O 	O 	0.26976 0.96389 0.37518 -0.36200
C 	C 	0.26627 0.90017 0.33040 0.28700
O 	O 	0.40737 0.93168 0.18277 -0.37400
O 	O 	0.39443 0.90262 0.26401 -0.42800
H 	H 	0.35762 0.96558 0.37034 0.16200
H 	H 	0.32153 0.92953 0.18125 0.16800
Cu	Cu	0.10459 0.79682 0.42952 0.92700
Cu	Cu	0.06412 0.84624 0.45399 0.87100
Cu	Cu	0.04198 0.80420 0.54599 0.89600
Cu	Cu	0.08323 0.75899 0.55029 0.89400
C 	C 	0.15960 0.76522 0.48209 0.28500
O 	O 	0.07866 0.77117 0.37115 -0.36300
C 	C 	0.99179 0.84319 0.52167 0.28400
O 	O 	0.09185 0.79113 0.54403 -0.63600
O 	O 	0.05649 0.81330 0.44144 -0.63900
O 	O 	0.13588 0.82253 0.38669 -0.37200
O 	O 	0.11686 0.84754 0.47537 -0.44000
O 	O 	0.13202 0.75055 0.50146 -0.38400
O 	O 	0.03102 0.79481 0.64801 -0.38100
C 	C 	0.03052 0.77333 0.67132 0.29000
C 	C 	0.04682 0.76117 0.39434 0.28300
O 	O 	0.03845 0.76082 0.46604 -0.38800
O 	O 	0.05637 0.75880 0.64859 -0.38900
O 	O 	0.15250 0.78211 0.43554 -0.35800
C 	C 	0.14110 0.84180 0.42353 0.29400
O 	O 	0.99594 0.82274 0.55219 -0.37600
O 	O 	0.01056 0.84929 0.46097 -0.41900
H 	H 	0.10984 0.79765 0.58157 0.16200
H 	H 	0.03658 0.80920 0.40416 0.17000
Cu	Cu	0.36913 0.70341 0.44212 0.92700
Cu	Cu	0.40682 0.65375 0.47194 0.87200
Cu	Cu	0.43022 0.69582 0.56188 0.89600
Cu	Cu	0.38998 0.74196 0.56111 0.89500
C 	C 	0.31538 0.73672 0.48717 0.28700
O 	O 	0.39740 0.72853 0.38484 -0.36300
C 	C 	0.47890 0.65566 0.54002 0.28100
O 	O 	0.38078 0.70980 0.55648 -0.63200
O 	O 	0.41628 0.68635 0.45744 -0.64000
O 	O 	0.33765 0.67757 0.40024 -0.37400
O 	O 	0.35409 0.65395 0.49418 -0.43900
O 	O 	0.34388 0.75089 0.50454 -0.38700
O 	O 	0.44326 0.70709 0.66156 -0.37500
C 	C 	0.44115 0.72871 0.68297 0.28700
C 	C 	0.42991 0.73754 0.40911 0.27800
O 	O 	0.43664 0.73911 0.48144 -0.38800
O 	O 	0.41223 0.74128 0.66289 -0.39100
O 	O 	0.32138 0.71848 0.44578 -0.35700
C 	C 	0.33019 0.65934 0.44118 0.29100
O 	O 	0.47475 0.67597 0.57190 -0.37600
O 	O 	0.46025 0.65022 0.47857 -0.41300
H 	H 	0.36204 0.70370 0.59334 0.16200
H 	H 	0.43663 0.68980 0.42045 0.17300
Cu	Cu	0.11664 0.29637 0.97278 0.92900
Cu	Cu	0.07600 0.34559 0.98861 0.87100
Cu	Cu	0.05602 0.30536 0.09116 0.89300
Cu	Cu	0.10229 0.26135 0.10500 0.89700
C 	C 	0.17497 0.26640 0.02138 0.28800
O 	O 	0.09059 0.26859 0.92577 -0.36400
C 	C 	0.00404 0.34309 0.05972 0.27600
O 	O 	0.10725 0.29345 0.08914 -0.63400
O 	O 	0.06852 0.31242 0.98426 -0.64100
O 	O 	0.14449 0.32094 0.91758 -0.37700
O 	O 	0.12969 0.34843 0.00120 -0.44200
O 	O 	0.14842 0.25220 0.04801 -0.38100
O 	O 	0.04353 0.29603 0.19360 -0.37600
C 	C 	0.04886 0.27523 0.22022 0.28600
C 	C 	0.06017 0.25858 0.95549 0.28500
O 	O 	0.05421 0.25973 0.02802 -0.39300
O 	O 	0.08076 0.26462 0.20653 -0.38500
O 	O 	0.16585 0.28371 0.97836 -0.36200
C 	C 	0.15236 0.34075 0.94919 0.30100
O 	O 	0.00910 0.32321 0.09363 -0.37500
O 	O 	0.02248 0.34854 0.99794 -0.41400
H 	H 	0.12559 0.30158 0.12260 0.16000
H 	H 	0.04820 0.30733 0.94908 0.17100
Cu	Cu	0.37970 0.20182 0.96394 0.93000
Cu	Cu	0.41989 0.15190 0.98223 0.87600
Cu	Cu	0.44311 0.19282 0.07645 0.89500
Cu	Cu	0.40691 0.24017 0.07749 0.89400
C 	C 	0.32933 0.23667 0.01118 0.28600
O 	O 	0.40573 0.22679 0.90185 -0.35500
C 	C 	0.49637 0.15662 0.03134 0.28200
O 	O 	0.39533 0.20837 0.07579 -0.63700
O 	O 	0.42708 0.18464 0.97237 -0.64200
O 	O 	0.34591 0.17625 0.92742 -0.36500
O 	O 	0.36826 0.15111 0.01255 -0.44200
O 	O 	0.35931 0.25001 0.02643 -0.38400
O 	O 	0.45860 0.20342 0.17535 -0.37300
C 	C 	0.46017 0.22521 0.19582 0.28400
C 	C 	0.43973 0.23506 0.91998 0.27600
O 	O 	0.44997 0.23609 0.99080 -0.38700
O 	O 	0.43331 0.23946 0.17608 -0.38900
O 	O 	0.33301 0.21715 0.97518 -0.35700
C 	C 	0.34201 0.15691 0.96460 0.29700
O 	O 	0.48402 0.17035 0.08471 -0.38400
O 	O 	0.47370 0.14970 0.97667 -0.41400
H 	H 	0.37722 0.20303 0.11495 0.16300
H 	H 	0.44686 0.18890 0.93512 0.17200
Cu	Cu	0.77712 0.95014 0.76611 0.92900
Cu	Cu	0.81633 0.90120 0.72972 0.87300
Cu	Cu	0.86091 0.94624 0.72257 0.89600
Cu	Cu	0.83559 0.99209 0.77861 0.89500
C 	C 	0.76573 0.98663 0.86915 0.28800
O 	O 	0.76257 0.97208 0.68426 -0.36300
C 	C 	0.88229 0.90497 0.63951 0.28200
O 	O 	0.83244 0.96041 0.80162 -0.63600
O 	O 	0.80947 0.93266 0.69744 -0.63900
O 	O 	0.74504 0.92417 0.80430 -0.36600
O 	O 	0.79663 0.90297 0.82787 -0.43800
O 	O 	0.78631 0.00038 0.82573 -0.38200
O 	O 	0.90996 0.95921 0.75361 -0.37900
C 	C 	0.91794 0.98125 0.76450 0.29100
C 	C 	0.78813 0.98172 0.63973 0.28300
O 	O 	0.82365 0.98440 0.66184 -0.39400
O 	O 	0.89194 0.99544 0.78885 -0.38900
O 	O 	0.75320 0.96654 0.84461 -0.35800
C 	C 	0.76028 0.90648 0.83671 0.29600
O 	O 	0.88937 0.92703 0.65250 -0.37500
O 	O 	0.84754 0.89617 0.64478 -0.41600
H 	H 	0.84058 0.95628 0.85283 0.16600
H 	H 	0.80287 0.93404 0.64378 0.17200
Cu	Cu	0.21544 0.04406 0.79188 0.92800
Cu	Cu	0.17707 0.09436 0.77116 0.86900
Cu	Cu	0.13181 0.04991 0.74885 0.89500
Cu	Cu	0.15644 0.00228 0.78836 0.89400
C 	C 	0.22413 0.00500 0.88542 0.28900
O 	O 	0.22994 0.02429 0.70412 -0.35900
C 	C 	0.11028 0.09366 0.68165 0.27900
O 	O 	0.15967 0.03309 0.82254 -0.63700
O 	O 	0.18363 0.06392 0.72866 -0.63900
O 	O 	0.24904 0.06836 0.83626 -0.36700
O 	O 	0.19894 0.09004 0.86667 -0.43900
O 	O 	0.20447 0.99235 0.83717 -0.38100
O 	O 	0.08259 0.03620 0.77546 -0.37800
C 	C 	0.07430 0.01394 0.77573 0.28700
C 	C 	0.20462 0.01780 0.65378 0.27900
O 	O 	0.16917 0.01348 0.67423 -0.39300
O 	O 	0.09996 0.99880 0.79477 -0.39100
O 	O 	0.23834 0.02523 0.86583 -0.35500
C 	C 	0.23534 0.08603 0.87147 0.29700
O 	O 	0.10379 0.07123 0.68517 -0.37300
O 	O 	0.14494 0.10243 0.68980 -0.41700
H 	H 	0.15121 0.03553 0.87472 0.16600
H 	H 	0.19031 0.06426 0.67485 0.17100
C 	C 	0.03382 0.00627 0.77352 -0.07200
C 	C 	0.01990 0.99093 0.82830 -0.02700
C 	C 	0.98238 0.98225 0.82505 0.04100
C 	C 	0.95816 0.98904 0.76663 -0.07700
C 	C 	0.97183 0.00455 0.71232 -0.02200
C 	C 	0.00952 0.01308 0.71505 0.03200
S 	S 	0.96584 0.96332 0.89545 -0.04700
S 	S 	0.02616 0.03156 0.64348 -0.03300
H 	H 	0.04181 0.01886 0.58739 0.03300
H 	H 	0.94995 0.97567 0.95214 0.03600
H 	H 	0.03831 0.98576 0.87365 0.04600
H 	H 	0.95315 0.00992 0.66765 0.03800
C 	C 	0.26181 0.10453 0.89580 -0.09300
C 	C 	0.28955 0.11287 0.84552 -0.02600
C 	C 	0.31567 0.13009 0.86716 0.03600
C 	C 	0.31371 0.13954 0.93968 -0.08900
C 	C 	0.28590 0.13130 0.99002 -0.01800
C 	C 	0.26001 0.11380 0.96858 0.04100
S 	S 	0.35181 0.13888 0.80412 -0.06300
S 	S 	0.22663 0.10305 0.03417 -0.05600
H 	H 	0.19371 0.11502 0.02842 0.03500
H 	H 	0.38331 0.12595 0.81545 0.01700
H 	H 	0.29097 0.10578 0.78950 0.03500
H 	H 	0.28467 0.13834 0.04611 0.03700
C 	C 	0.21467 0.25896 0.01984 -0.07800
C 	C 	0.23387 0.25815 0.95107 -0.01700
C 	C 	0.27214 0.25227 0.94815 0.04300
C 	C 	0.29137 0.24650 0.01444 -0.07800
C 	C 	0.27255 0.24780 0.08343 -0.02700
C 	C 	0.23436 0.25410 0.08658 0.03700
S 	S 	0.29598 0.25281 0.86138 -0.02600
S 	S 	0.21199 0.25652 0.17435 -0.06900
H 	H 	0.21647 0.27859 0.19985 0.03200
H 	H 	0.31254 0.27409 0.85049 0.03900
H 	H 	0.21901 0.26220 0.89974 0.05100
H 	H 	0.28743 0.24354 0.13454 0.03300
C 	C 	0.96312 0.85855 0.55188 -0.08200
C 	C 	0.97064 0.87004 0.61940 -0.02700
C 	C 	0.94548 0.88628 0.64652 0.03400
C 	C 	0.91210 0.89100 0.60605 -0.07900
C 	C 	0.90482 0.87969 0.53798 -0.02400
C 	C 	0.93004 0.86346 0.51087 0.03900
S 	S 	0.95556 0.90010 0.73225 -0.06600
S 	S 	0.91916 0.84882 0.42702 -0.04400
H 	H 	0.93508 0.86063 0.36801 0.03700
H 	H 	0.97512 0.92035 0.71903 0.04800
H 	H 	0.99634 0.86648 0.65051 0.03200
H 	H 	0.87907 0.88317 0.50694 0.04500
C 	C 	0.27595 0.74456 0.49580 -0.07700
C 	C 	0.26785 0.76766 0.48326 -0.02400
C 	C 	0.23029 0.77506 0.48625 0.03800
C 	C 	0.19989 0.75875 0.49400 -0.07500
C 	C 	0.20828 0.73589 0.51131 -0.02600
C 	C 	0.24615 0.72903 0.51558 0.03700
S 	S 	0.22236 0.80476 0.48896 -0.05200
S 	S 	0.25598 0.70190 0.55318 -0.04900
H 	H 	0.26077 0.70379 0.62904 0.02800
H 	H 	0.21994 0.81298 0.41733 0.05200
H 	H 	0.29084 0.77999 0.47227 0.04700
H 	H 	0.18545 0.72347 0.52233 0.04700
C 	C 	0.24910 0.99734 0.44181 -0.07500
C 	C 	0.26454 0.01687 0.47764 -0.02800
C 	C 	0.24796 0.02515 0.54323 0.03900
C 	C 	0.21690 0.01293 0.57618 -0.07800
C 	C 	0.19937 0.99472 0.53662 -0.02500
C 	C 	0.21453 0.98736 0.46853 0.03900
S 	S 	0.26441 0.05166 0.57986 -0.05800
S 	S 	0.18833 0.96715 0.41462 -0.02900
H 	H 	0.16447 0.97842 0.36734 0.03500
H 	H 	0.24367 0.06896 0.54969 0.02800
H 	H 	0.28982 0.02544 0.45513 0.03800
H 	H 	0.17417 0.98608 0.55919 0.04300
C 	C 	0.23738 0.99457 0.95535 -0.07400
C 	C 	0.26447 0.97734 0.95273 -0.01300
C 	C 	0.28075 0.96919 0.01892 0.03000
C 	C 	0.26939 0.97811 0.08857 -0.07600
C 	C 	0.24110 0.99459 0.09123 -0.02500
C 	C 	0.22533 0.00301 0.02513 0.03400
S 	S 	0.31509 0.94778 0.01386 -0.05600
S 	S 	0.19082 0.02433 0.03040 -0.07400
H 	H 	0.20840 0.04554 0.02518 0.04200
H 	H 	0.29741 0.92663 0.01996 0.03000
H 	H 	0.27362 0.97071 0.89916 0.04800
H 	H 	0.23213 0.00136 0.14476 0.04500
C 	C 	0.23234 0.88741 0.35727 -0.07700
C 	C 	0.20333 0.88162 0.30631 -0.02600
C 	C 	0.17286 0.86715 0.32777 0.04200
C 	C 	0.17154 0.85812 0.40097 -0.09100
C 	C 	0.19961 0.86474 0.45297 -0.02000
C 	C 	0.23025 0.87909 0.43137 0.03500
S 	S 	0.13599 0.86110 0.26328 -0.07800
S 	S 	0.26665 0.88553 0.49646 -0.04700
H 	H 	0.29408 0.86931 0.49157 0.02700
H 	H 	0.14429 0.84175 0.22368 0.04400
H 	H 	0.20469 0.88819 0.24958 0.04200
H 	H 	0.19819 0.85819 0.50972 0.04000
C 	C 	0.77574 0.99241 0.56996 -0.08000
C 	C 	0.78451 0.98220 0.50132 -0.02500
C 	C 	0.76974 0.99086 0.43456 0.03900
C 	C 	0.74557 0.00980 0.43668 -0.07800
C 	C 	0.73784 0.02042 0.50514 -0.02600
C 	C 	0.75288 0.01190 0.57165 0.03900
S 	S 	0.78270 0.97834 0.34886 -0.03600
S 	S 	0.74356 0.02606 0.65655 -0.04900
H 	H 	0.71188 0.01624 0.68953 0.04500
H 	H 	0.75663 0.96134 0.33062 0.03600
H 	H 	0.80245 0.96736 0.49993 0.03500
H 	H 	0.72005 0.03533 0.50660 0.03600
C 	C 	0.71796 0.01413 0.06903 -0.08700
C 	C 	0.74019 0.99455 0.07258 -0.01900
C 	C 	0.75565 0.98532 0.00748 0.03000
C 	C 	0.74908 0.99585 0.93784 -0.07000
C 	C 	0.72595 0.01507 0.93395 -0.02500
C 	C 	0.71012 0.02416 0.99911 0.04400
S 	S 	0.78414 0.96098 0.01416 -0.06700
S 	S 	0.68083 0.04812 0.99248 -0.06300
H 	H 	0.64353 0.04085 0.98625 0.04100
H 	H 	0.76188 0.94157 0.00371 0.04100
H 	H 	0.74604 0.98676 0.12633 0.04200
H 	H 	0.72022 0.02291 0.88022 0.04800
C 	C 	0.59273 0.11812 0.09337 -0.08300
C 	C 	0.59186 0.14152 0.11145 -0.02300
C 	C 	0.56265 0.15508 0.08440 0.03600
C 	C 	0.53272 0.14484 0.04232 -0.07500
C 	C 	0.53600 0.12207 0.01751 -0.03500
C 	C 	0.56637 0.10888 0.04143 0.04400
S 	S 	0.56545 0.18497 0.09890 -0.03900
S 	S 	0.57275 0.08163 0.00159 -0.05200
H 	H 	0.59600 0.08373 0.94025 0.03900
H 	H 	0.58472 0.19518 0.04055 0.03300
H 	H 	0.61356 0.14909 0.14767 0.03400
H 	H 	0.51448 0.11444 0.98109 0.04600
C 	C 	0.46079 0.00447 0.27604 -0.07600
C 	C 	0.47380 0.01755 0.21487 -0.02100
C 	C 	0.51131 0.02640 0.21307 0.03300
C 	C 	0.53605 0.02243 0.27373 -0.07200
C 	C 	0.52231 0.01036 0.33661 -0.02400
C 	C 	0.48494 0.00133 0.33798 0.03800
S 	S 	0.52738 0.04136 0.13304 -0.03700
S 	S 	0.46860 0.98639 0.41790 -0.05600
H 	H 	0.45233 0.00148 0.46638 0.03300
H 	H 	0.54322 0.02630 0.08390 0.03400
H 	H 	0.45515 0.02015 0.16742 0.04200
H 	H 	0.54093 0.00767 0.38405 0.04400
C 	C 	0.03233 0.24654 0.90677 -0.08100
C 	C 	0.99390 0.25246 0.90946 -0.02600
C 	C 	0.96824 0.24423 0.85506 0.03700
C 	C 	0.98147 0.23051 0.79574 -0.07500
C 	C 	0.01910 0.22304 0.79692 -0.02800
C 	C 	0.04441 0.23070 0.85258 0.03900
S 	S 	0.91951 0.25002 0.86462 -0.04500
S 	S 	0.09066 0.21975 0.85536 -0.04100
H 	H 	0.11472 0.23345 0.81342 0.04500
H 	H 	0.91198 0.27032 0.82966 0.03600
H 	H 	0.98414 0.26390 0.95287 0.04000
H 	H 	0.02899 0.21169 0.75335 0.04800
C 	C 	0.02309 0.26594 0.27883 -0.07500
C 	C 	0.01357 0.27964 0.34031 -0.02300
C 	C 	0.98936 0.27095 0.39663 0.04000
C 	C 	0.97486 0.24815 0.39209 -0.07900
C 	C 	0.98468 0.23445 0.33089 -0.02200
C 	C 	0.00819 0.24327 0.27396 0.03600
S 	S 	0.97609 0.28912 0.47036 -0.05800
S 	S 	0.01698 0.22615 0.19486 -0.06900
H 	H 	0.99036 0.23038 0.14086 0.04000
H 	H 	0.94333 0.29997 0.45133 0.03500
H 	H 	0.02488 0.29709 0.34424 0.04700
H 	H 	0.97334 0.21702 0.32681 0.03600
C 	C 	0.08014 0.10851 0.65323 -0.07500
C 	C 	0.08789 0.12308 0.59221 -0.02500
C 	C 	0.06128 0.13916 0.56952 0.04000
C 	C 	0.02644 0.14074 0.60808 -0.08100
C 	C 	0.01864 0.12618 0.66892 -0.02500
C 	C 	0.04512 0.11003 0.69147 0.03100
S 	S 	0.07215 0.15742 0.49355 -0.04600
S 	S 	0.03442 0.09225 0.76880 -0.04600
H 	H 	0.04787 0.10255 0.83283 0.02500
H 	H 	0.05914 0.14744 0.42868 0.03700
H 	H 	0.11481 0.12206 0.56282 0.04500
H 	H 	0.99167 0.12722 0.69814 0.03200
C 	C 	0.81686 0.14438 0.44995 -0.08400
C 	C 	0.78648 0.15343 0.40935 -0.02700
C 	C 	0.75947 0.13898 0.37467 0.04200
C 	C 	0.76126 0.11495 0.38418 -0.08700
C 	C 	0.78986 0.10594 0.42933 -0.02100
C 	C 	0.81845 0.12025 0.45987 0.03800
S 	S 	0.72560 0.15124 0.31501 -0.09000
S 	S 	0.85729 0.10739 0.50436 -0.07500
H 	H 	0.88523 0.10354 0.45268 0.01900
H 	H 	0.73971 0.15212 0.24355 0.02100
H 	H 	0.78494 0.17182 0.40148 0.05400
H 	H 	0.79109 0.08754 0.43730 0.05100
C 	C 	0.53793 0.25083 0.36362 -0.07600
C 	C 	0.51521 0.23112 0.37820 -0.02500
C 	C 	0.49002 0.22229 0.32375 0.03900
C 	C 	0.48818 0.23288 0.25280 -0.07500
C 	C 	0.51109 0.25238 0.23796 -0.02700
C 	C 	0.53517 0.26175 0.29301 0.03800
S 	S 	0.45982 0.19871 0.34659 -0.03800
S 	S 	0.55929 0.28802 0.27415 -0.05900
H 	H 	0.53584 0.30577 0.29026 0.02400
H 	H 	0.42634 0.20652 0.37510 0.03500
H 	H 	0.51698 0.22268 0.43211 0.04300
H 	H 	0.50927 0.26074 0.18390 0.03600
C 	C 	0.46578 0.24416 0.86114 -0.07600
C 	C 	0.48665 0.26467 0.87416 -0.02500
C 	C 	0.51143 0.27373 0.81947 0.04000
C 	C 	0.51485 0.26246 0.74995 -0.07500
C 	C 	0.49401 0.24202 0.73686 -0.02600
C 	C 	0.47001 0.23262 0.79207 0.03700
S 	S 	0.53920 0.29852 0.84025 -0.04200
S 	S 	0.44751 0.20572 0.77538 -0.05700
H 	H 	0.47123 0.18865 0.79703 0.02600
H 	H 	0.57318 0.29223 0.87069 0.03500
H 	H 	0.48374 0.27355 0.92708 0.04100
H 	H 	0.49712 0.23313 0.68399 0.03700
C 	C 	0.71723 0.25763 0.53481 -0.07400
C 	C 	0.72613 0.23470 0.54963 -0.02600
C 	C 	0.76418 0.22825 0.55536 0.03800
C 	C 	0.79382 0.24443 0.54045 -0.07500
C 	C 	0.78508 0.26760 0.53135 -0.02300
C 	C 	0.74713 0.27442 0.53192 0.03700
S 	S 	0.77427 0.20055 0.58777 -0.05800
S 	S 	0.73780 0.30393 0.53654 -0.04800
H 	H 	0.73703 0.31282 0.46560 0.05100
H 	H 	0.77275 0.18544 0.52930 0.04600
H 	H 	0.70354 0.22185 0.55681 0.04800
H 	H 	0.80780 0.28037 0.52407 0.04800
C 	C 	0.41829 0.38643 0.59995 -0.07800
C 	C 	0.41389 0.37212 0.53715 -0.02400
C 	C 	0.44242 0.35688 0.51758 0.03900
C 	C 	0.47582 0.35590 0.56111 -0.07800
C 	C 	0.48031 0.37024 0.62360 -0.02800
C 	C 	0.45185 0.38550 0.64321 0.03500
S 	S 	0.43571 0.33888 0.43931 -0.04400
S 	S 	0.45814 0.40282 0.72333 -0.06600
H 	H 	0.47477 0.42345 0.70325 0.05000
H 	H 	0.45058 0.34953 0.37708 0.03600
H 	H 	0.38808 0.37269 0.50395 0.04500
H 	H 	0.50614 0.36964 0.65674 0.03000
C 	C 	0.23408 0.38653 0.84604 -0.08900
C 	C 	0.23434 0.38375 0.92397 -0.02300
C 	C 	0.20815 0.36860 0.95859 0.04200
C 	C 	0.18107 0.35631 0.91474 -0.08900
C 	C 	0.18176 0.35860 0.83661 -0.02400
C 	C 	0.20832 0.37337 0.80209 0.03800
S 	S 	0.21068 0.36448 0.05608 -0.05700
S 	S 	0.20994 0.37462 0.70361 -0.07000
H 	H 	0.23511 0.35892 0.67767 0.02000
H 	H 	0.18776 0.37980 0.09118 0.03400
H 	H 	0.25475 0.39346 0.95770 0.03900
H 	H 	0.16146 0.34889 0.80260 0.04100
C 	C 	0.56818 0.61233 0.61724 -0.07800
C 	C 	0.53614 0.60265 0.58100 -0.02500
C 	C 	0.50596 0.61635 0.55933 0.04100
C 	C 	0.50934 0.64052 0.56674 -0.07900
C 	C 	0.54152 0.65023 0.60244 -0.02400
C 	C 	0.56990 0.63628 0.63097 0.03900
S 	S 	0.46295 0.60279 0.53038 -0.08400
S 	S 	0.60500 0.64877 0.68986 -0.07700
H 	H 	0.59262 0.64781 0.76253 0.03000
H 	H 	0.46373 0.59955 0.45444 0.03400
H 	H 	0.53411 0.58430 0.57168 0.05300
H 	H 	0.54396 0.66865 0.61019 0.05400
C 	C 	0.53082 0.50634 0.73628 -0.07300
C 	C 	0.51786 0.49096 0.79179 -0.02500
C 	C 	0.48063 0.48174 0.78962 0.03900
C 	C 	0.45585 0.48792 0.73129 -0.07700
C 	C 	0.46873 0.50328 0.67585 -0.02400
C 	C 	0.50607 0.51238 0.67763 0.03400
S 	S 	0.46511 0.46306 0.86153 -0.04800
S 	S 	0.52182 0.53058 0.60462 -0.04400
H 	H 	0.53783 0.51774 0.54928 0.03200
H 	H 	0.44910 0.47554 0.91776 0.03500
H 	H 	0.53670 0.48631 0.83709 0.04600
H 	H 	0.44970 0.50808 0.63103 0.03800
C 	C 	0.24665 0.49308 0.89878 -0.07900
C 	C 	0.22500 0.51295 0.89565 -0.02100
C 	C 	0.20865 0.52174 0.96080 0.03900
C 	C 	0.21440 0.51073 0.02995 -0.08200
C 	C 	0.23554 0.49072 0.03282 -0.02800
C 	C 	0.25165 0.48183 0.96781 0.04300
S 	S 	0.18116 0.54650 0.95507 -0.05300
S 	S 	0.27899 0.45700 0.97397 -0.06500
H 	H 	0.25591 0.43806 0.96157 0.04400
H 	H 	0.20415 0.56556 0.96608 0.03000
H 	H 	0.22064 0.52145 0.84249 0.04700
H 	H 	0.24000 0.48226 0.08605 0.04200
C 	C 	0.23996 0.50282 0.39858 -0.07900
C 	C 	0.26824 0.48631 0.39470 -0.01900
C 	C 	0.28476 0.47793 0.46029 0.03500
C 	C 	0.27306 0.48627 0.53047 -0.07800
C 	C 	0.24531 0.50308 0.53404 -0.02400
C 	C 	0.22845 0.51120 0.46870 0.03800
S 	S 	0.31935 0.45670 0.45388 -0.06100
S 	S 	0.19149 0.53095 0.47560 -0.07100
H 	H 	0.20584 0.55286 0.46694 0.03900
H 	H 	0.35487 0.46699 0.45098 0.04000
H 	H 	0.27741 0.48002 0.34069 0.04600
H 	H 	0.23613 0.50942 0.58799 0.04600
C 	C 	0.30078 0.64221 0.41677 -0.08500
C 	C 	0.30695 0.61877 0.42901 -0.02900
C 	C 	0.28148 0.60203 0.40100 0.03700
C 	C 	0.24981 0.60863 0.35834 -0.08900
C 	C 	0.24243 0.63201 0.34957 -0.02500
C 	C 	0.26734 0.64881 0.37905 0.03400
S 	S 	0.28887 0.57297 0.42222 -0.03300
S 	S 	0.25538 0.67785 0.37049 -0.02900
H 	H 	0.27037 0.68664 0.30542 0.04200
H 	H 	0.27304 0.56778 0.49042 0.03300
H 	H 	0.33193 0.61350 0.45950 0.02800
H 	H 	0.21763 0.63717 0.31827 0.02000
C 	C 	0.70785 0.51919 0.52626 -0.08000
C 	C 	0.68809 0.50210 0.48537 -0.02700
C 	C 	0.70206 0.49477 0.41631 0.03800
C 	C 	0.73787 0.50323 0.39063 -0.07600
C 	C 	0.75527 0.52205 0.42714 -0.02800
C 	C 	0.73956 0.53070 0.49301 0.03900
S 	S 	0.67278 0.47698 0.35954 -0.02800
S 	S 	0.75734 0.55706 0.52858 -0.05600
H 	H 	0.73726 0.57461 0.49821 0.02900
H 	H 	0.65082 0.49033 0.31462 0.03500
H 	H 	0.66203 0.49436 0.50747 0.04300
H 	H 	0.78133 0.52978 0.40494 0.03900
C 	C 	0.77036 0.48646 0.03953 -0.08200
C 	C 	0.74251 0.50323 0.04106 -0.03000
C 	C 	0.72641 0.51108 0.97462 0.04400
C 	C 	0.73842 0.50226 0.90537 -0.08100
C 	C 	0.76643 0.48554 0.90358 -0.02000
C 	C 	0.78246 0.47758 0.97032 0.03900
S 	S 	0.69022 0.53139 0.97907 -0.07200
S 	S 	0.81698 0.45626 0.96651 -0.05700
H 	H 	0.85259 0.46646 0.96440 0.04100
H 	H 	0.70584 0.55311 0.97413 0.04300
H 	H 	0.73306 0.51001 0.09424 0.04700
H 	H 	0.77595 0.47886 0.85034 0.04600
C 	C 	0.73743 0.39037 0.36459 -0.09400
C 	C 	0.73460 0.38740 0.44222 -0.02000
C 	C 	0.71033 0.37027 0.47211 0.03500
C 	C 	0.68811 0.35620 0.42363 -0.08900
C 	C 	0.69210 0.35873 0.34592 -0.02800
C 	C 	0.71677 0.37556 0.31626 0.03800
S 	S 	0.70942 0.36598 0.56966 -0.05000
S 	S 	0.72218 0.37757 0.21841 -0.08100
H 	H 	0.75180 0.36433 0.19627 0.01400
H 	H 	0.68195 0.37925 0.60076 0.03300
H 	H 	0.75121 0.39844 0.47939 0.03900
H 	H 	0.67554 0.34777 0.30841 0.04300
C 	C 	0.91678 0.38949 0.11800 -0.07800
C 	C 	0.91067 0.37363 0.05983 -0.02400
C 	C 	0.93825 0.35757 0.04262 0.03600
C 	C 	0.97260 0.35746 0.08336 -0.07800
C 	C 	0.97880 0.37331 0.14128 -0.02700
C 	C 	0.95125 0.38937 0.15865 0.03100
S 	S 	0.92912 0.33738 0.97110 -0.04000
S 	S 	0.95992 0.40880 0.23262 -0.04700
H 	H 	0.94584 0.39958 0.29784 0.02400
H 	H 	0.94255 0.34596 0.90448 0.03600
H 	H 	0.88414 0.37355 0.02876 0.04500
H 	H 	0.00541 0.37339 0.17211 0.02800
C 	C 	0.03125 0.50968 0.23068 -0.07500
C 	C 	0.01780 0.49500 0.17378 -0.02400
C 	C 	0.97994 0.48673 0.17399 0.03400
C 	C 	0.95513 0.49301 0.23230 -0.07300
C 	C 	0.96867 0.50765 0.28938 -0.02500
C 	C 	0.00653 0.51590 0.28910 0.03900
S 	S 	0.96368 0.46925 0.09953 -0.03700
S 	S 	0.02295 0.53326 0.36371 -0.04900
H 	H 	0.03759 0.51965 0.41859 0.03500
H 	H 	0.94872 0.48272 0.04464 0.03200
H 	H 	0.03677 0.49014 0.12895 0.03800
H 	H 	0.94987 0.51236 0.33467 0.04400
C 	C 	0.00485 0.76656 0.73350 -0.07600
C 	C 	0.96562 0.76995 0.72622 -0.02600
C 	C 	0.94001 0.76119 0.77983 0.03700
C 	C 	0.95361 0.74815 0.84042 -0.07800
C 	C 	0.99301 0.74587 0.84988 -0.02600
C 	C 	0.01870 0.75541 0.79780 0.03800
S 	S 	0.89147 0.76784 0.77279 -0.04000
S 	S 	0.06791 0.75464 0.81648 -0.04400
H 	H 	0.08228 0.73495 0.78717 0.03600
H 	H 	0.87256 0.75113 0.73234 0.04300
H 	H 	0.95495 0.77921 0.67829 0.04600
H 	H 	0.00372 0.73662 0.89779 0.04100
C 	C 	0.96936 0.73614 0.22572 -0.07600
C 	C 	0.97781 0.72223 0.28735 -0.02100
C 	C 	0.00265 0.73026 0.34345 0.03900
C 	C 	0.01870 0.75269 0.33887 -0.07900
C 	C 	0.00982 0.76667 0.27776 -0.02400
C 	C 	0.98579 0.75845 0.22078 0.03700
S 	S 	0.01497 0.71163 0.41663 -0.05700
S 	S 	0.97841 0.77575 0.14150 -0.06500
H 	H 	0.00495 0.77090 0.08797 0.03600
H 	H 	0.04667 0.69987 0.39660 0.03500
H 	H 	0.96538 0.70505 0.29124 0.04800
H 	H 	0.02228 0.78385 0.27379 0.03500
C 	C 	0.07384 0.61152 0.09551 -0.07600
C 	C 	0.04896 0.62087 0.14788 -0.03000
C 	C 	0.02206 0.63675 0.12562 0.03500
C 	C 	0.01961 0.64320 0.04972 -0.08800
C 	C 	0.04490 0.63404 0.99746 -0.00600
C 	C 	0.07189 0.61821 0.01992 0.02400
S 	S 	0.99095 0.64792 0.19301 -0.05300
S 	S 	0.10241 0.60647 0.95263 -0.03500
H 	H 	0.13532 0.61958 0.94860 0.03600
H 	H 	0.95850 0.63439 0.19643 0.02300
H 	H 	0.05086 0.61597 0.20629 0.03000
H 	H 	0.04303 0.63889 0.93901 0.04100
C 	C 	0.80324 0.63868 0.92427 -0.08400
C 	C 	0.80893 0.61507 0.93271 -0.02800
C 	C 	0.78113 0.59907 0.90899 0.03900
C 	C 	0.74792 0.60666 0.87328 -0.08800
C 	C 	0.74054 0.63020 0.87189 -0.02500
C 	C 	0.76767 0.64621 0.89842 0.03400
S 	S 	0.78736 0.56974 0.92778 -0.04100
S 	S 	0.75584 0.67534 0.90283 -0.02400
H 	H 	0.74097 0.68013 0.97181 0.03900
H 	H 	0.80635 0.55992 0.86951 0.04900
H 	H 	0.83535 0.60913 0.95629 0.03000
H 	H 	0.71418 0.63613 0.84798 0.02700
C 	C 	0.50875 0.76361 0.24404 -0.07400
C 	C 	0.52177 0.74972 0.30245 -0.02500
C 	C 	0.49648 0.74121 0.35710 0.03600
C 	C 	0.45776 0.74718 0.35486 -0.07900
C 	C 	0.44498 0.76152 0.29756 -0.02300
C 	C 	0.47001 0.76951 0.24181 0.03300
S 	S 	0.51326 0.72206 0.42511 -0.06200
S 	S 	0.45193 0.78580 0.16741 -0.04100
H 	H 	0.44124 0.77143 0.11002 0.03200
H 	H 	0.52478 0.73413 0.48728 0.04100
H 	H 	0.55149 0.74516 0.30456 0.04700
H 	H 	0.41527 0.76611 0.29554 0.04700
C 	C 	0.46724 0.73766 0.74140 -0.07600
C 	C 	0.48627 0.75878 0.72947 -0.02600
C 	C 	0.51032 0.76829 0.78431 0.03900
C 	C 	0.51669 0.75614 0.85144 -0.07700
C 	C 	0.49694 0.73524 0.86419 -0.02500
C 	C 	0.47190 0.72609 0.81013 0.04000
S 	S 	0.53019 0.79601 0.76998 -0.06000
S 	S 	0.44518 0.70090 0.83101 -0.04000
H 	H 	0.41136 0.70665 0.86334 0.03500
H 	H 	0.50581 0.81194 0.79731 0.02800
H 	H 	0.48194 0.76800 0.67758 0.03700
H 	H 	0.50121 0.72601 0.91606 0.04200
C 	C 	0.68445 0.85349 0.91719 -0.08800
C 	C 	0.68656 0.85825 0.84032 -0.02600
C 	C 	0.71204 0.87506 0.81327 0.03800
C 	C 	0.73537 0.88765 0.86359 -0.09100
C 	C 	0.73469 0.88221 0.93996 -0.02200
C 	C 	0.70970 0.86500 0.96699 0.04300
S 	S 	0.71512 0.87982 0.71604 -0.07600
S 	S 	0.71177 0.85725 0.06214 -0.05800
H 	H 	0.68714 0.87031 0.10227 0.03400
H 	H 	0.74267 0.86631 0.68646 0.01600
H 	H 	0.66777 0.84916 0.80161 0.04400
H 	H 	0.75350 0.89141 0.97837 0.04100
C 	C 	0.48351 0.86341 0.09223 -0.07800
C 	C 	0.44452 0.85800 0.09848 -0.02100
C 	C 	0.41982 0.87366 0.13060 0.04000
C 	C 	0.43434 0.89482 0.15824 -0.08600
C 	C 	0.47318 0.90043 0.15052 -0.01800
C 	C 	0.49787 0.88481 0.11826 0.03800
S 	S 	0.37062 0.86694 0.13344 -0.09200
S 	S 	0.54699 0.89175 0.11442 -0.09300
H 	H 	0.56427 0.88402 0.17800 0.03100
H 	H 	0.36199 0.85597 0.19935 0.01900
H 	H 	0.43333 0.84171 0.07757 0.04700
H 	H 	0.48441 0.91664 0.17194 0.04900
C 	C 	0.77455 0.73752 0.97502 -0.06800
C 	C 	0.75520 0.73826 0.04358 -0.03500
C 	C 	0.71665 0.74386 0.04600 0.03100
C 	C 	0.69715 0.74869 0.97907 -0.07000
C 	C 	0.71627 0.74719 0.91037 -0.02000
C 	C 	0.75490 0.74207 0.90803 0.03900
S 	S 	0.69349 0.74546 0.13319 -0.07100
S 	S 	0.77881 0.74267 0.82130 -0.02900
H 	H 	0.79420 0.76420 0.80930 0.03900
H 	H 	0.69644 0.76749 0.15961 0.03100
H 	H 	0.77014 0.73450 0.09506 0.03300
H 	H 	0.70136 0.75091 0.85880 0.05100
