data_crystal

_cell_length_a 35.61853
_cell_length_b 34.27380
_cell_length_c 19.39407
_cell_angle_alpha 91.62883
_cell_angle_beta  90.60834
_cell_angle_gamma 90.07082

_symmetry_space_group_name_	'P 1'
_symmetry_space_group_name_H-M	'P 1'

loop_
_symmetry_equiv_pos_as_xyz
  x,y,z

loop_
_atom_site_label
_atom_site_type_symbol
_atom_site_fract_x
_atom_site_fract_y
_atom_site_fract_z
_atom_site_charge
Cd	Cd	0.07743 0.87898 0.18971 1.24400
Cd	Cd	0.07933 0.91162 0.36600 1.18000
O 	O 	0.11283 0.81922 0.16137 -0.31800
O 	O 	0.07437 0.84517 0.08704 -0.32900
C 	C 	0.09513 0.81533 0.10272 0.29500
O 	O 	0.03375 0.92690 0.19586 -0.35900
O 	O 	0.05845 0.95730 0.29346 -0.40800
C 	C 	0.03104 0.95297 0.24757 0.34100
C 	C 	0.03278 0.83947 0.28702 0.35600
O 	O 	0.12602 0.90202 0.28408 -0.45400
O 	O 	0.02332 0.82981 0.22382 -0.27700
O 	O 	0.06246 0.86128 0.29338 -0.54300
C 	C 	0.13833 0.92787 0.24170 0.32400
O 	O 	0.12472 0.92505 0.17892 -0.31600
Cd	Cd	0.99812 0.91885 0.91805 1.24200
Cd	Cd	0.97351 0.99607 0.80667 1.22400
O 	O 	0.05471 0.88125 0.88683 -0.31100
O 	O 	0.02191 0.86831 0.97831 -0.34500
C 	C 	0.04893 0.85770 0.93690 0.30300
O 	O 	0.95152 0.95086 0.97428 -0.35000
O 	O 	0.92782 0.97546 0.87446 -0.41400
C 	C 	0.93043 0.97662 0.94213 0.30100
C 	C 	0.03559 0.99182 0.93303 0.33400
O 	O 	0.97968 0.92943 0.78785 -0.40200
O 	O 	0.04384 0.96948 0.98464 -0.24600
O 	O 	0.01842 0.97451 0.88133 -0.52000
C 	C 	0.95341 0.90326 0.79511 0.33700
O 	O 	0.95494 0.88433 0.85238 -0.36800
C 	C 	0.08363 0.69892 0.86121 0.13700
N 	N 	0.07324 0.66720 0.89697 -0.13200
C 	C 	0.07491 0.63090 0.86703 0.13100
N 	N 	0.08721 0.62649 0.80119 -0.14300
C 	C 	0.09617 0.65823 0.76434 0.13100
N 	N 	0.09509 0.69432 0.79491 -0.14200
C 	C 	0.06550 0.66278 0.14384 0.13600
N 	N 	0.08505 0.66181 0.20440 -0.14500
C 	C 	0.07229 0.64023 0.25693 0.13300
N 	N 	0.04168 0.61713 0.24700 -0.14200
C 	C 	0.02331 0.61619 0.18536 0.13200
N 	N 	0.03538 0.63880 0.13357 -0.14300
Cd	Cd	0.75056 0.99851 0.70226 1.23500
Cd	Cd	0.79808 0.98409 0.86161 1.19300
O 	O 	0.69506 0.95743 0.68357 -0.31300
O 	O 	0.70862 0.00369 0.61161 -0.28400
C 	C 	0.68630 0.97518 0.62756 0.26800
O 	O 	0.79603 0.04504 0.70731 -0.34300
O 	O 	0.83398 0.01165 0.78216 -0.39000
C 	C 	0.82693 0.04300 0.74630 0.32300
C 	C 	0.72149 0.03432 0.82540 0.34500
O 	O 	0.78436 0.94225 0.76834 -0.43600
O 	O 	0.70588 0.04831 0.77019 -0.26500
O 	O 	0.74328 0.00443 0.81425 -0.52200
C 	C 	0.80462 0.93636 0.71322 0.35100
O 	O 	0.79399 0.95517 0.65896 -0.34700
Cd	Cd	0.82204 0.86447 0.45757 1.24400
Cd	Cd	0.87498 0.91756 0.33544 1.22700
O 	O 	0.78584 0.80862 0.41060 -0.32100
O 	O 	0.78518 0.82452 0.52055 -0.33000
C 	C 	0.77001 0.80396 0.46984 0.28500
O 	O 	0.85759 0.90482 0.52430 -0.35600
O 	O 	0.86632 0.94811 0.43807 -0.37100
C 	C 	0.87713 0.93323 0.49695 0.33800
C 	C 	0.89252 0.83487 0.41325 0.34600
O 	O 	0.81188 0.90437 0.34533 -0.44800
O 	O 	0.88015 0.81530 0.46542 -0.29300
O 	O 	0.86853 0.85833 0.38555 -0.51500
C 	C 	0.78787 0.92600 0.37921 0.32900
O 	O 	0.77909 0.91367 0.43998 -0.32400
C 	C 	0.55033 0.92382 0.67369 0.13500
N 	N 	0.56330 0.90115 0.72527 -0.13300
C 	C 	0.54189 0.89528 0.78165 0.13000
N 	N 	0.50620 0.90903 0.78334 -0.14400
C 	C 	0.49231 0.92969 0.73014 0.12800
N 	N 	0.51458 0.93752 0.67582 -0.14600
C 	C 	0.62382 0.80915 0.36978 0.13900
N 	N 	0.59249 0.82349 0.40093 -0.14300
C 	C 	0.56259 0.83484 0.36236 0.12900
N 	N 	0.56424 0.83188 0.29253 -0.14300
C 	C 	0.59650 0.82083 0.26103 0.13100
N 	N 	0.62616 0.80889 0.29969 -0.14000
Cd	Cd	0.87314 0.14449 0.34438 1.24200
Cd	Cd	0.88178 0.07301 0.47147 1.21400
O 	O 	0.83506 0.20172 0.37568 -0.29800
O 	O 	0.86716 0.19903 0.27938 -0.34600
C 	C 	0.84439 0.21866 0.31947 0.30100
O 	O 	0.91589 0.10156 0.30177 -0.37600
O 	O 	0.89489 0.05005 0.36451 -0.37100
C 	C 	0.91895 0.06476 0.32095 0.30600
C 	C 	0.92330 0.15835 0.45796 0.34100
O 	O 	0.82991 0.09874 0.41562 -0.43400
O 	O 	0.92986 0.18225 0.40826 -0.27300
O 	O 	0.89394 0.13630 0.44903 -0.53500
C 	C 	0.81521 0.08612 0.35729 0.34500
O 	O 	0.82541 0.10454 0.30260 -0.31200
Cd	Cd	0.82153 0.19628 0.04576 1.24400
Cd	Cd	0.80629 0.15238 0.88064 1.19800
O 	O 	0.78283 0.25322 0.07817 -0.30000
O 	O 	0.82586 0.23094 0.14776 -0.34500
C 	C 	0.80325 0.25956 0.13327 0.28800
O 	O 	0.85679 0.14211 0.04864 -0.37400
O 	O 	0.86099 0.13608 0.93113 -0.40800
C 	C 	0.86338 0.12063 0.99245 0.33600
C 	C 	0.75927 0.14545 0.02428 0.34600
O 	O 	0.82238 0.21606 0.91444 -0.43900
O 	O 	0.76527 0.15149 0.09047 -0.26100
O 	O 	0.77873 0.16676 0.98383 -0.53500
C 	C 	0.85594 0.23005 0.92683 0.32100
O 	O 	0.86811 0.22800 0.99019 -0.37500
C 	C 	0.84062 0.40762 0.06586 0.13600
N 	N 	0.86989 0.43282 0.07610 -0.13800
C 	C 	0.87888 0.45837 0.02635 0.12400
N 	N 	0.85945 0.45771 0.96577 -0.14300
C 	C 	0.83069 0.43228 0.95500 0.13200
N 	N 	0.82091 0.40774 0.00544 -0.13900
C 	C 	0.81708 0.38031 0.36162 0.14200
N 	N 	0.82827 0.41045 0.32295 -0.14000
C 	C 	0.82532 0.44771 0.34783 0.13300
N 	N 	0.81038 0.45475 0.41109 -0.14400
C 	C 	0.79989 0.42467 0.45073 0.13200
N 	N 	0.80333 0.38740 0.42582 -0.13700
Cd	Cd	0.02503 0.19914 0.76931 1.24600
Cd	Cd	0.96745 0.19737 0.91931 1.19700
O 	O 	0.08637 0.23144 0.78374 -0.31000
O 	O 	0.07253 0.19597 0.69167 -0.34800
C 	C 	0.09882 0.21278 0.72944 0.29400
O 	O 	0.97736 0.15833 0.73975 -0.33800
O 	O 	0.93587 0.18179 0.82109 -0.40000
C 	C 	0.94545 0.15524 0.77397 0.36900
C 	C 	0.04225 0.14543 0.87480 0.36000
O 	O 	0.99168 0.24769 0.85462 -0.45300
O 	O 	0.06012 0.13729 0.81808 -0.29300
O 	O 	0.02340 0.17783 0.87513 -0.52100
C 	C 	0.97542 0.26353 0.80168 0.32700
O 	O 	0.98816 0.25221 0.74146 -0.31800
Cd	Cd	0.09423 0.04304 0.58342 1.24500
Cd	Cd	0.04183 0.07935 0.44329 1.17400
O 	O 	0.14992 0.07988 0.62258 -0.31800
O 	O 	0.13246 0.02682 0.67344 -0.32600
C 	C 	0.15838 0.05326 0.66648 0.31000
O 	O 	0.04274 0.00540 0.58084 -0.36200
O 	O 	0.02657 0.01749 0.46880 -0.44600
C 	C 	0.01735 0.00595 0.53070 0.37200
C 	C 	0.04575 0.10782 0.60529 0.34700
O 	O 	0.10437 0.06017 0.45275 -0.44600
O 	O 	0.05479 0.09250 0.66423 -0.27000
O 	O 	0.06317 0.09379 0.55209 -0.54900
C 	C 	0.11832 0.02528 0.44390 0.31700
O 	O 	0.12133 0.00459 0.49906 -0.34400
C 	C 	0.22528 0.14003 0.84649 0.14000
N 	N 	0.22377 0.13715 0.91628 -0.14200
C 	C 	0.24633 0.11132 0.94892 0.13600
N 	N 	0.27059 0.08886 0.91183 -0.14100
C 	C 	0.27250 0.09216 0.84245 0.13500
N 	N 	0.25037 0.11822 0.81013 -0.13900
C 	C 	0.28781 0.02149 0.54952 0.13700
N 	N 	0.31996 0.00025 0.55008 -0.12500
C 	C 	0.33921 0.99400 0.49063 0.09400
N 	N 	0.32557 0.00794 0.43043 -0.12700
C 	C 	0.29264 0.02785 0.42941 0.14300
N 	N 	0.27407 0.03499 0.48910 -0.12600
C 	C 	0.24555 0.10835 0.02470 -0.05400
C 	C 	0.21520 0.09008 0.05796 0.11700
C 	C 	0.21901 0.08019 0.12759 -0.08800
C 	C 	0.25281 0.08703 0.16373 -0.00000
C 	C 	0.28266 0.10645 0.13112 0.07200
C 	C 	0.27821 0.11790 0.06256 -0.04800
N 	N 	0.18274 0.08121 0.02326 -0.20400
H 	H 	0.19601 0.06585 0.15301 0.08200
C 	C 	0.25751 0.07130 0.23392 0.00200
N 	N 	0.31592 0.11332 0.16457 -0.19300
H 	H 	0.30120 0.13233 0.03727 0.05100
C 	C 	0.26405 0.03123 0.24075 -0.08800
C 	C 	0.27242 0.01591 0.30553 0.13100
C 	C 	0.27697 0.04162 0.36351 -0.04600
C 	C 	0.26800 0.08126 0.35755 -0.04500
C 	C 	0.25732 0.09619 0.29349 0.07300
H 	H 	0.26250 0.01191 0.19555 0.07000
N 	N 	0.27468 0.97657 0.31216 -0.21000
H 	H 	0.26995 0.10069 0.40258 0.05300
N 	N 	0.24735 0.13436 0.28942 -0.19300
H 	H 	0.27288 0.95791 0.26867 0.08800
H 	H 	0.27575 0.96406 0.36060 0.10100
H 	H 	0.24839 0.15281 0.33325 0.08900
H 	H 	0.23748 0.14582 0.24334 0.09300
H 	H 	0.33753 0.12813 0.14029 0.08900
H 	H 	0.32098 0.10355 0.21426 0.09300
H 	H 	0.17905 0.08745 0.97132 0.11600
H 	H 	0.16058 0.06780 0.04843 0.14100
C 	C 	0.26625 0.02764 0.61293 -0.00000
C 	C 	0.24454 0.99688 0.63730 -0.14500
C 	C 	0.21076 0.00497 0.67128 0.23900
C 	C 	0.19840 0.04396 0.67844 -0.11300
C 	C 	0.22484 0.07388 0.67058 -0.02700
C 	C 	0.25843 0.06594 0.63618 0.13000
H 	H 	0.25187 0.96694 0.62409 0.08600
O 	O 	0.18830 0.97482 0.69092 -0.29700
H 	H 	0.21698 0.10394 0.68131 0.06900
O 	O 	0.28232 0.09593 0.62129 -0.27700
H 	H 	0.27289 0.10637 0.57717 0.15100
H 	H 	0.19571 0.96996 0.73935 0.15300
C 	C 	0.19443 0.15885 0.80935 -0.04900
C 	C 	0.19659 0.19846 0.79356 -0.08200
C 	C 	0.16719 0.21608 0.75701 0.17700
C 	C 	0.13574 0.19376 0.73523 -0.09900
C 	C 	0.13664 0.15314 0.74263 -0.04900
C 	C 	0.16403 0.13631 0.78443 0.15000
H 	H 	0.22052 0.21580 0.81097 0.06900
O 	O 	0.16793 0.25553 0.74717 -0.27900
H 	H 	0.11367 0.13525 0.72280 0.08500
O 	O 	0.16063 0.09802 0.80220 -0.27500
H 	H 	0.14565 0.09854 0.84504 0.16200
H 	H 	0.18024 0.25862 0.70201 0.15100
C 	C 	0.81457 0.42691 0.88522 -0.05000
C 	C 	0.83020 0.39956 0.83754 0.11200
C 	C 	0.81920 0.40022 0.76794 -0.08600
C 	C 	0.79357 0.42810 0.74501 -0.00100
C 	C 	0.77556 0.45318 0.79351 0.07100
C 	C 	0.78647 0.45251 0.86333 -0.05000
N 	N 	0.85640 0.37328 0.85785 -0.20100
H 	H 	0.83210 0.38026 0.73084 0.06700
C 	C 	0.78981 0.43407 0.66994 -0.00400
N 	N 	0.74838 0.47837 0.77326 -0.19400
H 	H 	0.77395 0.47283 0.90025 0.04900
C 	C 	0.76361 0.41169 0.63145 -0.08400
C 	C 	0.76386 0.41142 0.55897 0.10700
C 	C 	0.79234 0.43203 0.52481 -0.04700
C 	C 	0.81664 0.45670 0.56331 -0.04900
C 	C 	0.81542 0.45823 0.63558 0.07500
H 	H 	0.74321 0.39419 0.65793 0.06000
N 	N 	0.73621 0.39237 0.52269 -0.19800
H 	H 	0.83767 0.47355 0.53711 0.05300
N 	N 	0.83931 0.48240 0.67166 -0.19300
H 	H 	0.71633 0.37571 0.54810 0.09400
H 	H 	0.73292 0.39570 0.46962 0.09700
H 	H 	0.85879 0.49936 0.64587 0.08800
H 	H 	0.83825 0.48534 0.72531 0.09200
H 	H 	0.73596 0.49757 0.80908 0.08800
H 	H 	0.73870 0.47853 0.72226 0.09100
H 	H 	0.86504 0.37168 0.90927 0.12100
H 	H 	0.86825 0.35377 0.82190 0.10400
C 	C 	0.92802 0.29867 0.86986 -0.11800
C 	C 	0.93694 0.27827 0.80860 -0.14100
C 	C 	0.90777 0.25837 0.77289 0.33100
C 	C 	0.87599 0.24707 0.80932 -0.09400
C 	C 	0.87343 0.25728 0.87958 -0.15400
C 	C 	0.89643 0.28752 0.90648 0.32100
F 	F 	0.89039 0.30301 0.97055 -0.46800
H 	H 	0.94842 0.31823 0.89423 0.08100
H 	H 	0.85582 0.22716 0.78539 0.07100
F 	F 	0.91303 0.24425 0.70762 -0.43200
C 	C 	0.81420 0.30024 0.15122 -0.09800
C 	C 	0.85220 0.31104 0.14700 -0.04700
C 	C 	0.86197 0.34904 0.12898 0.15800
C 	C 	0.83362 0.37637 0.11507 -0.04200
C 	C 	0.79647 0.36768 0.13276 -0.08100
C 	C 	0.78668 0.32971 0.15100 0.17700
H 	H 	0.87399 0.28919 0.15150 0.07200
O 	O 	0.89909 0.35892 0.12261 -0.28900
H 	H 	0.77465 0.38931 0.12625 0.06800
O 	O 	0.74965 0.32044 0.16034 -0.27700
H 	H 	0.74522 0.32487 0.21033 0.14600
H 	H 	0.90550 0.35242 0.07401 0.18000
C 	C 	0.94586 0.12261 0.56109 -0.09400
C 	C 	0.94997 0.15367 0.51609 -0.17300
C 	C 	0.98229 0.17725 0.52190 0.33400
C 	C 	0.01272 0.16527 0.56198 -0.11700
C 	C 	0.01108 0.12983 0.59608 -0.16400
C 	C 	0.97660 0.11036 0.60034 0.31500
F 	F 	0.97419 0.07703 0.63603 -0.44500
H 	H 	0.91972 0.10657 0.56274 0.00800
H 	H 	0.03881 0.18152 0.56099 0.08900
F 	F 	0.98495 0.21064 0.48625 -0.43800
C 	C 	0.83653 0.26020 0.31064 -0.09200
C 	C 	0.86640 0.28685 0.30967 -0.04400
C 	C 	0.85994 0.32670 0.32242 0.14900
C 	C 	0.82339 0.33995 0.33708 -0.04300
C 	C 	0.79327 0.31367 0.33354 -0.08600
C 	C 	0.79964 0.27404 0.31920 0.18200
H 	H 	0.89487 0.27648 0.30264 0.07500
O 	O 	0.88971 0.35215 0.32556 -0.27000
H 	H 	0.76498 0.32383 0.34339 0.06700
O 	O 	0.76999 0.24843 0.31773 -0.27300
H 	H 	0.76127 0.24719 0.26898 0.15900
H 	H 	0.89245 0.36147 0.27793 0.15900
C 	C 	0.53242 0.85845 0.39454 -0.05200
C 	C 	0.51239 0.84556 0.45253 0.10100
C 	C 	0.48377 0.86920 0.48048 -0.08600
C 	C 	0.47235 0.90316 0.44742 -0.00400
C 	C 	0.49272 0.91630 0.39024 0.07200
C 	C 	0.52317 0.89434 0.36573 -0.05200
N 	N 	0.51918 0.81002 0.47952 -0.19900
H 	H 	0.46845 0.85958 0.52494 0.05400
C 	C 	0.43703 0.92258 0.46870 -0.01000
N 	N 	0.48289 0.94963 0.35804 -0.19400
H 	H 	0.53922 0.90480 0.32277 0.05100
C 	C 	0.43896 0.95692 0.50971 -0.07800
C 	C 	0.40705 0.98044 0.51926 0.07800
C 	C 	0.37227 0.96826 0.48968 -0.03900
C 	C 	0.36980 0.93238 0.45347 -0.06100
C 	C 	0.40190 0.90958 0.44183 0.07300
H 	H 	0.46575 0.96629 0.53158 0.05600
N 	N 	0.41025 0.01492 0.55539 -0.18700
H 	H 	0.34296 0.92281 0.43207 0.05000
N 	N 	0.39892 0.87574 0.40369 -0.19500
H 	H 	0.43599 0.02340 0.57745 0.09400
H 	H 	0.38741 0.03364 0.56198 0.10100
H 	H 	0.37290 0.86664 0.38360 0.08500
H 	H 	0.42217 0.85805 0.39371 0.09000
H 	H 	0.49815 0.95899 0.31582 0.08500
H 	H 	0.46006 0.96649 0.37407 0.08900
H 	H 	0.53601 0.78936 0.45425 0.10000
H 	H 	0.50573 0.80180 0.52451 0.09100
C 	C 	0.29718 0.06616 0.80203 -0.04600
C 	C 	0.29285 0.02517 0.80336 0.10100
C 	C 	0.32223 0.00107 0.78041 -0.05900
C 	C 	0.35501 0.01739 0.75404 0.00900
C 	C 	0.35632 0.05791 0.74185 0.07700
C 	C 	0.32762 0.08212 0.76737 -0.04700
N 	N 	0.26047 0.00892 0.82565 -0.18700
H 	H 	0.32028 0.96973 0.78582 0.04000
C 	C 	0.38948 0.99335 0.75058 -0.02100
N 	N 	0.38554 0.07373 0.70776 -0.19200
H 	H 	0.32973 0.11349 0.76262 0.05800
C 	C 	0.39257 0.96407 0.69894 -0.08300
C 	C 	0.42531 0.94139 0.69357 0.10000
C 	C 	0.45621 0.95002 0.73795 -0.05300
C 	C 	0.45275 0.97869 0.79042 -0.05100
C 	C 	0.41915 0.99936 0.79897 0.05800
H 	H 	0.36935 0.95868 0.66331 0.05600
N 	N 	0.42633 0.91063 0.64772 -0.19900
H 	H 	0.47618 0.98453 0.82543 0.04700
N 	N 	0.41530 0.02433 0.85427 -0.18300
H 	H 	0.40320 0.90425 0.61571 0.08800
H 	H 	0.44964 0.89226 0.64438 0.09200
H 	H 	0.43794 0.02987 0.88786 0.09500
H 	H 	0.38949 0.03701 0.86641 0.09500
H 	H 	0.38672 0.10379 0.70027 0.09300
H 	H 	0.40688 0.05630 0.68708 0.09500
H 	H 	0.23693 0.02602 0.83678 0.10700
H 	H 	0.25793 0.97863 0.82852 0.07700
C 	C 	0.55821 0.87709 0.84367 -0.04600
C 	C 	0.59261 0.89037 0.87380 0.10600
C 	C 	0.60588 0.87343 0.93454 -0.08500
C 	C 	0.58303 0.84815 0.97137 -0.00300
C 	C 	0.54851 0.83506 0.94167 0.07200
C 	C 	0.53734 0.84844 0.87673 -0.05100
N 	N 	0.61165 0.92100 0.84775 -0.19700
H 	H 	0.63246 0.88306 0.95694 0.05800
C 	C 	0.59225 0.84160 0.04519 -0.00500
N 	N 	0.52560 0.81046 0.97566 -0.19300
H 	H 	0.51130 0.83789 0.85342 0.05200
C 	C 	0.58845 0.87278 0.09296 -0.08500
C 	C 	0.59480 0.86740 0.16352 0.10400
C 	C 	0.60155 0.82939 0.18744 -0.04900
C 	C 	0.60793 0.79868 0.13959 -0.05300
C 	C 	0.60452 0.80477 0.06823 0.07200
H 	H 	0.58084 0.90143 0.07505 0.05600
N 	N 	0.59517 0.89885 0.20790 -0.19900
H 	H 	0.61456 0.76984 0.15777 0.05200
N 	N 	0.61248 0.77519 0.02251 -0.19500
H 	H 	0.58817 0.92654 0.19061 0.08800
H 	H 	0.60442 0.89648 0.25889 0.09600
H 	H 	0.62050 0.74783 0.03998 0.08800
H 	H 	0.61173 0.77930 0.96938 0.09400
H 	H 	0.50036 0.80083 0.95301 0.08700
H 	H 	0.53221 0.80098 0.02493 0.09100
H 	H 	0.59871 0.94039 0.81455 0.10100
H 	H 	0.63859 0.92800 0.86611 0.09400
C 	C 	0.79951 0.98158 0.30248 -0.13500
C 	C 	0.78321 0.96747 0.36254 -0.12600
C 	C 	0.76862 0.99426 0.41165 0.31300
C 	C 	0.77623 0.03403 0.40646 -0.05900
C 	C 	0.79765 0.04737 0.35162 -0.15400
C 	C 	0.80702 0.02134 0.29717 0.38500
F 	F 	0.82586 0.03406 0.24160 -0.41200
H 	H 	0.80877 0.96146 0.26206 0.07700
H 	H 	0.76714 0.05423 0.44689 0.09300
F 	F 	0.74851 0.98170 0.46582 -0.43600
C 	C 	0.94234 0.92811 0.54354 -0.07800
C 	C 	0.90979 0.95056 0.53383 -0.08700
C 	C 	0.91252 0.99125 0.53944 0.26700
C 	C 	0.94766 0.00936 0.53732 -0.00900
C 	C 	0.98055 0.98699 0.54007 -0.19200
C 	C 	0.97777 0.94627 0.54627 0.37400
F 	F 	0.00925 0.92416 0.55034 -0.46900
H 	H 	0.94050 0.89655 0.54306 0.10500
H 	H 	0.94927 0.04045 0.53032 0.00800
F 	F 	0.88092 0.01319 0.54266 -0.52900
C 	C 	0.72959 0.79429 0.47038 -0.09500
C 	C 	0.71631 0.76495 0.42424 -0.04700
C 	C 	0.68065 0.76819 0.39352 0.14600
C 	C 	0.65729 0.79983 0.41199 -0.04200
C 	C 	0.66788 0.82473 0.46753 -0.08300
C 	C 	0.70383 0.82198 0.49703 0.17800
H 	H 	0.73506 0.74195 0.40666 0.06500
O 	O 	0.66870 0.74037 0.34592 -0.27700
H 	H 	0.64925 0.84785 0.48489 0.07600
O 	O 	0.71423 0.84744 0.54972 -0.26700
H 	H 	0.72282 0.87138 0.52696 0.16200
H 	H 	0.67881 0.74866 0.30116 0.15200
C 	C 	0.89546 0.05887 0.74854 -0.09900
C 	C 	0.85820 0.07111 0.73711 -0.11200
C 	C 	0.85105 0.11095 0.72751 0.29800
C 	C 	0.88051 0.13818 0.73314 -0.10100
C 	C 	0.91705 0.12611 0.75068 -0.11900
C 	C 	0.92444 0.08623 0.75708 0.35900
F 	F 	0.95937 0.07406 0.77496 -0.48900
H 	H 	0.90168 0.02822 0.75446 0.07900
H 	H 	0.87470 0.16878 0.72616 0.09500
F 	F 	0.81547 0.12358 0.71620 -0.48900
C 	C 	0.74536 0.04660 0.94634 -0.06500
C 	C 	0.72085 0.05636 0.89230 -0.17300
C 	C 	0.69936 0.09070 0.89906 0.34100
C 	C 	0.70816 0.11839 0.95097 -0.11000
C 	C 	0.73799 0.11177 0.99677 -0.14900
C 	C 	0.75396 0.07436 0.99866 0.32600
F 	F 	0.78034 0.06620 0.04714 -0.42800
H 	H 	0.75917 0.01852 0.94608 0.00300
H 	H 	0.69406 0.14639 0.95173 0.09100
F 	F 	0.67131 0.09816 0.85339 -0.43900
C 	C 	0.64870 0.97020 0.59714 -0.07800
C 	C 	0.63826 0.93251 0.57388 -0.04900
C 	C 	0.60286 0.91771 0.59032 0.14600
C 	C 	0.57744 0.94152 0.62703 -0.04000
C 	C 	0.58455 0.98178 0.63327 -0.10600
C 	C 	0.62029 0.99624 0.61823 0.16200
H 	H 	0.65925 0.91301 0.55223 0.07300
O 	O 	0.59473 0.87909 0.57694 -0.27400
H 	H 	0.56397 0.00105 0.65691 0.09200
O 	O 	0.62843 0.03494 0.63101 -0.25500
H 	H 	0.63575 0.03696 0.68050 0.17300
H 	H 	0.58249 0.87832 0.53075 0.15000
C 	C 	0.98927 0.59208 0.17635 -0.05300
C 	C 	0.95303 0.60922 0.17829 0.10400
C 	C 	0.92174 0.58578 0.19172 -0.08600
C 	C 	0.92632 0.54621 0.20570 -0.00400
C 	C 	0.96149 0.52824 0.19444 0.07600
C 	C 	0.99277 0.55144 0.18018 -0.05700
N 	N 	0.94825 0.64820 0.17011 -0.20000
H 	H 	0.89423 0.59901 0.19675 0.05700
C 	C 	0.89678 0.52610 0.24427 -0.00300
N 	N 	0.96552 0.48894 0.19884 -0.19400
H 	H 	0.02027 0.53811 0.17595 0.05000
C 	C 	0.86691 0.50815 0.20801 -0.08500
C 	C 	0.84084 0.48511 0.24225 0.10700
C 	C 	0.84562 0.47903 0.31365 -0.04900
C 	C 	0.87368 0.49955 0.35080 -0.04900
C 	C 	0.89917 0.52336 0.31689 0.07400
H 	H 	0.86413 0.51181 0.15311 0.05900
N 	N 	0.81087 0.46976 0.20683 -0.19800
H 	H 	0.87665 0.49575 0.40592 0.05300
N 	N 	0.92597 0.54322 0.35417 -0.19400
H 	H 	0.80790 0.47382 0.15384 0.09000
H 	H 	0.78941 0.45525 0.23197 0.09400
H 	H 	0.92813 0.54011 0.40752 0.08800
H 	H 	0.94423 0.56267 0.33112 0.09400
H 	H 	0.99185 0.47597 0.19266 0.08900
H 	H 	0.94233 0.47077 0.20522 0.09900
H 	H 	0.97082 0.66664 0.16100 0.10200
H 	H 	0.92144 0.66051 0.17248 0.09300
C 	C 	0.05582 0.59797 0.89975 -0.04900
C 	C 	0.06178 0.59001 0.97024 0.11300
C 	C 	0.03662 0.56542 0.00373 -0.08900
C 	C 	0.00756 0.54638 0.96665 0.00400
C 	C 	0.00491 0.55030 0.89429 0.07500
C 	C 	0.02850 0.57676 0.86179 -0.05000
N 	N 	0.09238 0.60437 0.00500 -0.20000
H 	H 	0.03993 0.56075 0.05842 0.06000
C 	C 	0.97737 0.52656 0.00454 -0.00900
N 	N 	0.97961 0.52900 0.85592 -0.19500
H 	H 	0.02482 0.58169 0.80714 0.05200
C 	C 	0.94278 0.54554 0.01225 -0.08000
C 	C 	0.91006 0.52418 0.02510 0.09900
C 	C 	0.91252 0.48335 0.03410 -0.04800
C 	C 	0.94796 0.46559 0.03670 -0.05200
C 	C 	0.98053 0.48680 0.02153 0.07000
H 	H 	0.94085 0.57654 0.00311 0.05800
N 	N 	0.87638 0.54283 0.02722 -0.19900
H 	H 	0.95000 0.43464 0.04634 0.05500
N 	N 	0.01448 0.46871 0.02214 -0.19300
H 	H 	0.87484 0.57290 0.02010 0.08800
H 	H 	0.85154 0.52791 0.03716 0.08900
H 	H 	0.01646 0.43911 0.03325 0.08800
H 	H 	0.03926 0.48398 0.01339 0.08900
H 	H 	0.97688 0.53313 0.80292 0.08700
H 	H 	0.96342 0.50723 0.87770 0.09300
H 	H 	0.11332 0.61963 0.97979 0.10900
H 	H 	0.09661 0.59834 0.05703 0.09800
C 	C 	0.09939 0.65434 0.68875 -0.04900
C 	C 	0.06801 0.64331 0.64700 0.10500
C 	C 	0.07236 0.63858 0.57546 -0.08400
C 	C 	0.10662 0.64711 0.54437 -0.00300
C 	C 	0.13793 0.65851 0.58587 0.07100
C 	C 	0.13398 0.66193 0.65788 -0.05100
N 	N 	0.03343 0.63862 0.67485 -0.19900
H 	H 	0.04845 0.62996 0.54342 0.06000
C 	C 	0.10812 0.64748 0.46805 -0.00400
N 	N 	0.17181 0.66582 0.55714 -0.19400
H 	H 	0.15791 0.67047 0.68993 0.05000
C 	C 	0.09797 0.68169 0.43476 -0.08500
C 	C 	0.08733 0.68054 0.36480 0.11100
C 	C 	0.08923 0.64464 0.32654 -0.05000
C 	C 	0.10344 0.61139 0.35832 -0.05100
C 	C 	0.11293 0.61246 0.42885 0.07100
H 	H 	0.09546 0.70876 0.46470 0.06100
N 	N 	0.07404 0.71354 0.33572 -0.19700
H 	H 	0.10592 0.58424 0.32862 0.04900
N 	N 	0.12639 0.57980 0.45867 -0.19400
H 	H 	0.07517 0.74023 0.36313 0.11700
H 	H 	0.06093 0.71295 0.28740 0.12700
H 	H 	0.12881 0.55368 0.42991 0.08800
H 	H 	0.13561 0.58030 0.50998 0.09100
H 	H 	0.19462 0.67475 0.58807 0.08700
H 	H 	0.17603 0.66211 0.50417 0.08900
H 	H 	0.02805 0.64647 0.72618 0.09700
H 	H 	0.01090 0.62874 0.64408 0.09000
C 	C 	0.87100 0.01268 0.95380 -0.05700
C 	C 	0.90671 0.00470 0.98091 -0.11500
C 	C 	0.92339 0.03219 0.02714 0.33400
C 	C 	0.90766 0.06967 0.03539 -0.07200
C 	C 	0.87520 0.07951 0.99780 -0.11000
C 	C 	0.85653 0.05050 0.95813 0.32100
F 	F 	0.82646 0.05987 0.91849 -0.53900
H 	H 	0.85707 0.99102 0.92095 -0.03400
H 	H 	0.92195 0.09158 0.06737 0.09400
F 	F 	0.95647 0.02395 0.05888 -0.42700
C 	C 	0.88843 0.87939 0.77175 -0.08800
C 	C 	0.91758 0.90542 0.75655 -0.14100
C 	C 	0.90985 0.93724 0.71440 0.32700
C 	C 	0.87287 0.94551 0.69560 -0.08900
C 	C 	0.84335 0.92247 0.71919 -0.15000
C 	C 	0.85135 0.88834 0.75449 0.33000
F 	F 	0.82312 0.86457 0.77410 -0.44900
H 	H 	0.89424 0.85352 0.80086 0.09700
H 	H 	0.86695 0.97131 0.66639 0.10900
F 	F 	0.93779 0.96130 0.69473 -0.51300
C 	C 	0.06792 0.09598 0.95119 -0.06900
C 	C 	0.03617 0.11509 0.92491 -0.18400
C 	C 	0.00173 0.09534 0.92339 0.35300
C 	C 	0.00114 0.05481 0.92821 -0.08600
C 	C 	0.03441 0.03449 0.94233 -0.11900
C 	C 	0.06722 0.05551 0.95899 0.34300
F 	F 	0.09919 0.03648 0.97638 -0.42900
H 	H 	0.09434 0.11152 0.95684 0.07600
H 	H 	0.97542 0.03914 0.91702 0.04100
F 	F 	0.96960 0.11460 0.90805 -0.52200
C 	C 	0.05858 0.81613 0.92738 -0.09700
C 	C 	0.02970 0.78851 0.91854 -0.05100
C 	C 	0.03797 0.74969 0.90051 0.14300
C 	C 	0.07536 0.73833 0.88900 -0.04100
C 	C 	0.10432 0.76592 0.89726 -0.08700
C 	C 	0.09606 0.80475 0.91625 0.18200
H 	H 	0.00065 0.79735 0.92412 0.06200
O 	O 	0.00938 0.72297 0.89323 -0.27600
H 	H 	0.13319 0.75736 0.88848 0.07000
O 	O 	0.12469 0.83124 0.92565 -0.28200
H 	H 	0.12870 0.84236 0.87964 0.16100
H 	H 	0.00139 0.72388 0.84414 0.15000
C 	C 	0.98203 0.04999 0.27064 -0.12900
C 	C 	0.94533 0.03781 0.28459 -0.08800
C 	C 	0.93557 0.99825 0.27264 0.30700
C 	C 	0.96322 0.97072 0.25485 -0.08500
C 	C 	0.00062 0.98247 0.24695 -0.14100
C 	C 	0.00943 0.02256 0.25104 0.36500
F 	F 	0.04466 0.03486 0.23729 -0.43600
H 	H 	0.98979 0.08043 0.27774 0.06300
H 	H 	0.95585 0.94006 0.25044 0.05700
F 	F 	0.89950 0.98635 0.27971 -0.51200
C 	C 	0.98804 0.87219 0.36461 -0.10300
C 	C 	0.00506 0.83758 0.34161 -0.17300
C 	C 	0.98782 0.80165 0.35464 0.33700
C 	C 	0.95185 0.80083 0.38271 -0.08200
C 	C 	0.93262 0.83580 0.39608 -0.16700
C 	C 	0.95140 0.87158 0.38880 0.32500
F 	F 	0.93360 0.90573 0.40130 -0.56700
H 	H 	0.00158 0.89999 0.35653 0.02300
H 	H 	0.93805 0.77306 0.38978 0.08900
F 	F 	0.00445 0.76773 0.33417 -0.45700
C 	C 	0.17693 0.96368 0.32785 -0.11100
C 	C 	0.15336 0.96496 0.26958 -0.13900
C 	C 	0.13258 0.99917 0.25948 0.29900
C 	C 	0.12460 0.02363 0.31644 -0.06600
C 	C 	0.13940 0.01466 0.38136 -0.13800
C 	C 	0.16944 0.98817 0.38479 0.30400
F 	F 	0.18909 0.98402 0.44450 -0.45500
H 	H 	0.19675 0.93996 0.33302 0.08000
H 	H 	0.10443 0.04702 0.31148 0.08400
F 	F 	0.11550 0.00529 0.19787 -0.38200
C 	C 	0.07008 0.69674 0.09985 -0.04100
C 	C 	0.04022 0.72309 0.09429 -0.07800
C 	C 	0.04739 0.76277 0.08555 0.18100
C 	C 	0.08469 0.77576 0.07788 -0.09500
C 	C 	0.11322 0.74799 0.06810 -0.04900
C 	C 	0.10620 0.70857 0.08048 0.14800
H 	H 	0.01191 0.71379 0.10545 0.07300
O 	O 	0.01894 0.78919 0.09567 -0.26600
H 	H 	0.14163 0.75746 0.05800 0.06400
O 	O 	0.13493 0.68200 0.07633 -0.28500
H 	H 	0.14748 0.68317 0.12226 0.15200
H 	H 	0.00546 0.79040 0.05091 0.16000
